data_lala_23K
_audit_creation_date               2023-08-25
_audit_creation_method
;
Olex2 1.5-alpha
(compiled 2023.08.17 svn.r577a77a9 for OlexSys, GUI svn.r6817)
;
_audit_contact_author_address      ?
_audit_contact_author_email        ?
_audit_contact_author_name         ''
_audit_contact_author_phone        ?
_publ_contact_author_id_orcid      ?
_publ_section_references
;
Bourhis, L.J., Dolomanov, O.V., Gildea, R.J., Howard, J.A.K., Puschmann, H.
 (2015). Acta Cryst. A71, 59-75.

Dolomanov, O.V., Bourhis, L.J., Gildea, R.J, Howard, J.A.K. & Puschmann, H.
 (2009), J. Appl. Cryst. 42, 339-341.

Kleemiss, F., Dolomanov, O.V., Bodensteiner, M., Peyerimhoff, N., Midgley, M.,
Bourhis, L.J., Genoni, A., Malaspina, L.A., Jayatilaka, D., Spencer, J.L.,
White, F., Grundkoetter-Stock, B, Steinhauer, S., Lentz, D., Puschmann, H.,
Grabowsky, S. (2021), Chem. Sci., 12, 1675-1692.
;
_chemical_formula_moiety           'C3 H7 N O2'
_chemical_formula_sum              'C3 H7 N O2'
_chemical_formula_weight           82.291
_chemical_absolute_configuration   unk
loop_
  _atom_type_symbol
  _atom_type_scat_dispersion_real
  _atom_type_scat_dispersion_imag
  _atom_type_scat_source
  _atom_type_scat_dispersion_source
 C 0.00313 0.00162 'NoSpherA2: Chem.Sci. 2021, DOI:10.1039/D0SC05526C'
 'Brennan, Cowan, Rev. Sci. Instrum., 1992, 63, 850'
 H 0.00000 0.00000 'NoSpherA2: Chem.Sci. 2021, DOI:10.1039/D0SC05526C'
 'Brennan, Cowan, Rev. Sci. Instrum., 1992, 63, 850'
 N 0.00612 0.00332 'NoSpherA2: Chem.Sci. 2021, DOI:10.1039/D0SC05526C'
 'Brennan, Cowan, Rev. Sci. Instrum., 1992, 63, 850'
 O 0.01085 0.00610 'NoSpherA2: Chem.Sci. 2021, DOI:10.1039/D0SC05526C'
 'Brennan, Cowan, Rev. Sci. Instrum., 1992, 63, 850'

_space_group_crystal_system        'orthorhombic'
_space_group_IT_number             19
_space_group_name_H-M_alt          'P 21 21 21'
_space_group_name_Hall             ' P 2ac 2ab'
loop_
  _space_group_symop_id
  _space_group_symop_operation_xyz
 1 x,y,z
 2 x+1/2,-y+1/2,-z
 3 -x,y+1/2,-z+1/2
 4 -x+1/2,-y,z+1/2

_symmetry_Int_Tables_number        19
_cell_length_a                     5.9279(10)
_cell_length_b                     12.2597(17)
_cell_length_c                     5.7939(9)
_cell_angle_alpha                  90
_cell_angle_beta                   90
_cell_angle_gamma                  90
_cell_volume                       421.07(11)
_cell_formula_units_Z              4
_exptl_absorpt_coefficient_mu      0.113
_exptl_crystal_density_diffrn      1.298
_exptl_crystal_F_000               165.160
_diffrn_reflns_av_R_equivalents    0.0000
_diffrn_reflns_av_unetI/netI       0.0235
_diffrn_reflns_Laue_measured_fraction_full  0.9641
_diffrn_reflns_Laue_measured_fraction_max  0.9412
_diffrn_reflns_limit_h_max         12
_diffrn_reflns_limit_h_min         0
_diffrn_reflns_limit_k_max         26
_diffrn_reflns_limit_k_min         0
_diffrn_reflns_limit_l_max         12
_diffrn_reflns_limit_l_min         0
_diffrn_reflns_number              2387
_diffrn_reflns_point_group_measured_fraction_full  0.9641
_diffrn_reflns_point_group_measured_fraction_max  0.9412
_diffrn_reflns_theta_full          25.2417
_diffrn_reflns_theta_max           50.14
_diffrn_reflns_theta_min           3.32
_diffrn_measured_fraction_theta_full  0.9641
_diffrn_measured_fraction_theta_max  0.9412
_diffrn_radiation_type             'Mo K\a'
_diffrn_radiation_wavelength       0.71073
_reflns_Friedel_coverage           0.0
_reflns_limit_h_max                12
_reflns_limit_h_min                0
_reflns_limit_k_max                26
_reflns_limit_k_min                0
_reflns_limit_l_max                12
_reflns_limit_l_min                0
_reflns_number_gt                  2387
_reflns_number_total               2387
_reflns_threshold_expression       I>=2u(I)
_computing_molecular_graphics      'Olex2 1.5-alpha (Dolomanov et al., 2009)'
_computing_publication_material    'Olex2 1.5-alpha (Dolomanov et al., 2009)'
_computing_structure_refinement   
 'olex2.refine 1.5-alpha (Bourhis et al., 2015)'
_refine_diff_density_max           0.1560
_refine_diff_density_min           -0.1728
_refine_diff_density_rms           0.0419
_refine_ls_d_res_high              0.4630
_refine_ls_d_res_low               6.1299
_refine_ls_goodness_of_fit_ref     0.8352
_refine_ls_hydrogen_treatment      refall
_refine_ls_matrix_type             full
_refine_ls_number_constraints      0
_refine_ls_number_parameters       118
_refine_ls_number_reflns           2387
_refine_ls_number_restraints       0
_refine_ls_R_factor_all            0.0193
_refine_ls_R_factor_gt             0.0193
_refine_ls_restrained_S_all        0.8352
_refine_ls_shift/su_max            0.0004
_refine_ls_shift/su_mean           0.0000
_refine_ls_structure_factor_coef   Fsqd
_refine_ls_weighting_details      
 'w=1/[\s^2^(Fo^2^)+(0.0398P)^2^] where P=(Fo^2^+2Fc^2^)/3'
_refine_ls_weighting_scheme        calc
_refine_ls_wR_factor_gt            0.0499
_refine_ls_wR_factor_ref           0.0499
_olex2_refinement_description
;
;
_olex2_refine_details
;
Refinement using NoSpherA2, an implementation of
NOn-SPHERical Atom-form-factors in Olex2.
Please cite:
F. Kleemiss et al. Chem. Sci. DOI 10.1039/D0SC05526C - 2021
NoSpherA2 implementation of HAR makes use of
tailor-made aspherical atomic form factors calculated
on-the-fly from a Hirshfeld-partitioned electron density (ED) - not from
spherical-atom form factors.

The ED is calculated from a gaussian basis set single determinant SCF
wavefunction - either Hartree-Fock or DFT using selected funtionals
 - for a fragment of the crystal.
This fragment can be embedded in an electrostatic crystal field by employing cluster charges
or modelled using implicit solvation models, depending on the software used.
The following options were used:
   SOFTWARE:       ORCA 5.0
   PARTITIONING:   NoSpherA2
   INT ACCURACY:   Normal
   METHOD:         B3LYP
   BASIS SET:      def2-TZVP
   CHARGE:         0
   MULTIPLICITY:   1
   DATE:           2023-08-25_13-52-27
;
loop_
  _atom_site_label
  _atom_site_type_symbol
  _atom_site_fract_x
  _atom_site_fract_y
  _atom_site_fract_z
  _atom_site_U_iso_or_equiv
  _atom_site_adp_type
  _atom_site_occupancy
  _atom_site_refinement_flags_posn
 O001 O 0.44084(4) 0.68405(2) 0.76111(4) 0.00622(3) Uani 1.000000 .
 O002 O 0.72676(4) 0.58379(2) 0.62428(5) 0.00642(4) Uani 1.000000 .
 N003 N 0.64716(4) 0.63753(2) 0.18295(5) 0.00515(4) Uani 1.000000 .
 C004 C 0.55404(5) 0.64078(2) 0.59986(5) 0.00409(4) Uani 1.000000 .
 C005 C 0.46628(5) 0.66107(2) 0.35436(5) 0.00429(4) Uani 1.000000 .
 C006 C 0.25984(5) 0.59069(3) 0.30331(6) 0.00675(4) Uani 1.000000 .
 H005 H 0.4234(15) 0.7473(6) 0.3412(18) 0.023(2) Uani 1.000000 .
 H00a H 0.7021(18) 0.5601(8) 0.197(2) 0.026(2) Uani 1.000000 .
 H00d H 0.1936(17) 0.6099(8) 0.1322(18) 0.034(3) Uani 1.000000 .
 H00b H 0.7773(17) 0.6889(7) 0.211(2) 0.029(3) Uani 1.000000 .
 H00e H 0.1248(13) 0.6057(8) 0.428(2) 0.034(3) Uani 1.000000 .
 H00f H 0.3057(18) 0.5043(8) 0.310(2) 0.035(3) Uani 1.000000 .
 H00c H 0.5812(17) 0.6491(8) 0.0200(17) 0.022(2) Uani 1.000000 .

loop_
  _atom_site_aniso_label
  _atom_site_aniso_U_11
  _atom_site_aniso_U_22
  _atom_site_aniso_U_33
  _atom_site_aniso_U_12
  _atom_site_aniso_U_13
  _atom_site_aniso_U_23
 O001 0.00734(7) 0.00748(7) 0.00385(7) 0.00205(6) 0.00053(6) -0.00061(6)
 O002 0.00657(7) 0.00693(7) 0.00576(8) 0.00246(6) -0.00071(6) 0.00047(6)
 N003 0.00542(7) 0.00590(7) 0.00412(8) 0.00012(6) 0.00058(6) -0.00022(6)
 C004 0.00471(7) 0.00425(7) 0.00332(9) 0.00039(7) -0.00022(7) -0.00007(6)
 C005 0.00499(8) 0.00447(7) 0.00343(9) 0.00046(6) -0.00043(7) 0.00013(6)
 C006 0.00571(9) 0.00866(9) 0.00587(10) -0.00126(7) -0.00058(7) -0.00044(8)
 H005 0.027(5) 0.012(4) 0.029(6) 0.003(4) -0.010(4) 0.006(4)
 H00a 0.031(5) 0.024(4) 0.021(6) 0.008(5) 0.013(5) -0.000(4)
 H00d 0.034(6) 0.050(6) 0.019(6) -0.013(5) -0.023(5) 0.011(5)
 H00b 0.022(5) 0.026(5) 0.040(7) -0.007(4) 0.004(5) -0.014(5)
 H00e 0.007(4) 0.050(7) 0.044(7) 0.002(5) 0.014(4) 0.002(6)
 H00f 0.040(7) 0.018(4) 0.046(7) -0.005(5) -0.003(7) -0.005(5)
 H00c 0.036(5) 0.017(4) 0.012(5) -0.007(5) 0.022(5) -0.006(4)

loop_
  _geom_bond_atom_site_label_1
  _geom_bond_atom_site_label_2
  _geom_bond_distance
  _geom_bond_site_symmetry_2
  _geom_bond_publ_flag
 O001 C004 1.2667(4) . ?
 O002 C004 1.2476(4) . ?
 N003 C005 1.4897(4) . ?
 N003 H00a 1.006(10) . ?
 N003 H00b 1.009(9) . ?
 N003 H00c 1.032(11) . ?
 C004 C005 1.5349(5) . ?
 C005 C006 1.5263(5) . ?
 C005 H005 1.090(8) . ?
 C006 H00d 1.092(9) . ?
 C006 H00e 1.093(10) . ?
 C006 H00f 1.094(10) . ?

loop_
  _geom_angle_atom_site_label_1
  _geom_angle_atom_site_label_2
  _geom_angle_atom_site_label_3
  _geom_angle
  _geom_angle_site_symmetry_1
  _geom_angle_site_symmetry_3
  _geom_angle_publ_flag
 H00a N003 C005 111.3(6) . . ?
 H00b N003 C005 108.8(6) . . ?
 H00b N003 H00a 109.2(9) . . ?
 H00c N003 C005 108.1(5) . . ?
 H00c N003 H00a 108.9(8) . . ?
 H00c N003 H00b 110.6(8) . . ?
 O002 C004 O001 125.85(3) . . ?
 C005 C004 O001 115.85(3) . . ?
 C005 C004 O002 118.29(3) . . ?
 C004 C005 N003 110.03(2) . . ?
 C006 C005 N003 109.78(2) . . ?
 C006 C005 C004 111.09(3) . . ?
 H005 C005 N003 108.0(5) . . ?
 H005 C005 C004 107.5(5) . . ?
 H005 C005 C006 110.4(5) . . ?
 H00d C006 C005 110.0(5) . . ?
 H00e C006 C005 111.4(6) . . ?
 H00e C006 H00d 107.4(8) . . ?
 H00f C006 C005 110.0(5) . . ?
 H00f C006 H00d 109.2(9) . . ?
 H00f C006 H00e 108.8(8) . . ?

loop_
  _geom_torsion_atom_site_label_1
  _geom_torsion_atom_site_label_2
  _geom_torsion_atom_site_label_3
  _geom_torsion_atom_site_label_4
  _geom_torsion
  _geom_torsion_site_symmetry_1
  _geom_torsion_site_symmetry_2
  _geom_torsion_site_symmetry_3
  _geom_torsion_site_symmetry_4
  _geom_torsion_publ_flag
 O001 C004 C005 N003 162.15(3) . . . . ?
 O001 C004 C005 C006 -76.08(3) . . . . ?
 O002 C004 C005 N003 -18.20(3) . . . . ?
 O002 C004 C005 C006 103.58(3) . . . . ?

loop_
  _diffrn_refln_index_h
  _diffrn_refln_index_k
  _diffrn_refln_index_l
  _diffrn_refln_intensity_net
  _diffrn_refln_intensity_u
 0 2 0 334.85 3.2
 0 4 0 9447.96 80.98
 0 6 0 163.42 1.9
 0 8 0 82.62 1.3
 0 10 0 1.45 0.63
 0 12 0 424.1 4.84
 0 14 0 106.7 2.05
 0 16 0 45.99 1.56
 0 18 0 414.75 5.42
 0 22 0 246.96 4.3
 0 26 0 11.75 1.12
 0 1 1 1319.87 13.35
 0 2 1 217.8 2.22
 0 3 1 1291 11.66
 0 4 1 179.04 1.94
 0 6 1 865.39 8.34
 0 7 1 67.28 1.12
 0 8 1 80.82 1.32
 0 9 1 58.45 1.21
 0 10 1 250.18 3.09
 0 11 1 121.56 2.01
 0 12 1 139.1 2.23
 0 13 1 34.32 1.27
 0 14 1 69.07 1.71
 0 15 1 165.75 2.83
 0 17 1 2.07 0.63
 0 18 1 109.1 2.5
 0 19 1 29.44 1.62
 0 20 1 50 1.9
 0 21 1 4.9 0.76
 0 23 1 3.15 0.76
 0 25 1 5.44 1.02
 0 26 1 36.05 2.25
 0 0 2 5178.81 60.69
 0 1 2 971.42 11.94
 0 2 2 330.81 3.78
 0 3 2 102.38 1.45
 0 4 2 311.95 3.26
 0 5 2 1032.74 9.7
 0 6 2 176.21 2.12
 0 7 2 9.87 0.61
 0 8 2 203.55 2.55
 0 9 2 43.16 1.08
 0 10 2 84.28 1.56
 0 11 2 152.64 2.29
 0 12 2 51.47 1.36
 0 13 2 39.16 1.27
 0 14 2 38.79 1.38
 0 15 2 330.36 4.36
 0 16 2 8.1 0.74
 0 17 2 111.26 2.51
 0 18 2 37.17 1.66
 0 19 2 218.41 3.82
 0 20 2 1.79 0.74
 0 21 2 83.7 2.48
 0 22 2 67.07 2.35
 0 23 2 32.83 1.88
 0 24 2 4.54 0.84
 0 25 2 40.93 2.29
 0 26 2 4.66 0.91
 0 1 3 153.03 3.18
 0 2 3 287.44 5.33
 0 3 3 374.29 4.47
 0 4 3 1346.46 14.17
 0 5 3 148.15 2.18
 0 6 3 496.2 5.18
 0 7 3 40.82 1.04
 0 8 3 112.32 1.81
 0 9 3 260.05 3.24
 0 10 3 72.18 1.51
 0 11 3 128.21 2.16
 0 12 3 216.66 3.09
 0 13 3 265.11 3.65
 0 14 3 50.69 1.56
 0 15 3 164.82 2.89
 0 16 3 282.02 4.12
 0 17 3 86.01 2.25
 0 18 3 49.2 1.81
 0 19 3 4.56 0.74
 0 20 3 80.97 2.44
 0 21 3 1.58 0.71
 0 22 3 2.1 0.74
 0 23 3 51.3 2.12
 0 24 3 23.17 1.66
 0 25 3 9.07 1.04
 0 0 4 382.02 7.11
 0 1 4 72.55 2.2
 0 2 4 169.55 3.74
 0 3 4 14.58 0.82
 0 4 4 418.07 5.18
 0 6 4 129.23 2.23
 0 7 4 53.24 1.42
 0 8 4 117.48 1.96
 0 9 4 13.11 0.84
 0 10 4 164.59 2.51
 0 11 4 178.5 2.76
 0 12 4 71.06 1.75
 0 13 4 20.93 1.19
 0 14 4 259.49 3.8
 0 15 4 82.47 2.16
 0 16 4 172.49 3.17
 0 17 4 10.39 0.84
 0 18 4 17.56 1.36
 0 19 4 6.13 0.8
 0 20 4 3.33 0.74
 0 22 4 7.93 0.89
 0 24 4 48.42 2.07
 0 25 4 5.29 0.93
 0 1 5 430.17 8.23
 0 2 5 250.1 5.38
 0 3 5 89.66 2.79
 0 4 5 708.88 8.36
 0 5 5 323.81 4.43
 0 7 5 12.07 0.97
 0 8 5 264.59 3.97
 0 9 5 126.36 2.59
 0 10 5 14.49 1.01
 0 11 5 37.8 1.42
 0 12 5 2.72 0.6
 0 13 5 144.26 2.74
 0 14 5 6.41 0.74
 0 15 5 25.68 1.43
 0 16 5 24.19 1.45
 0 17 5 140.33 3.02
 0 18 5 4.25 0.76
 0 19 5 24.82 1.64
 0 21 5 35.77 1.9
 0 22 5 10.02 0.95
 0 23 5 22.81 1.75
 0 1 6 170.8 4.47
 0 2 6 29.51 1.86
 0 3 6 2.72 1.17
 0 4 6 29.12 1.97
 0 5 6 157.15 2.87
 0 6 6 20.37 1.19
 0 7 6 258.8 4.08
 0 8 6 54.65 1.79
 0 9 6 26.14 1.42
 0 10 6 28.43 1.49
 0 11 6 213.55 3.46
 0 12 6 11.49 1.02
 0 13 6 8.7 0.88
 0 14 6 21.3 1.34
 0 16 6 75.68 2.33
 0 17 6 53.05 2.01
 0 18 6 14.21 1.25
 0 19 6 80.56 2.53
 0 20 6 3.35 0.78
 0 21 6 38.81 1.97
 0 22 6 19.27 1.42
 0 23 6 30.99 1.81
 0 1 7 107.09 3.74
 0 2 7 986.04 17.73
 0 4 7 21.47 2.01
 0 5 7 43.87 2.61
 0 6 7 78.66 2.22
 0 7 7 84.99 2.33
 0 8 7 3.56 0.78
 0 9 7 8.99 0.95
 0 10 7 16.8 1.47
 0 11 7 57.2 2.16
 0 12 7 10.63 1.17
 0 13 7 21.21 1.45
 0 14 7 2.7 0.71
 0 16 7 148.84 3.3
 0 17 7 1.92 0.73
 0 18 7 4.21 0.8
 0 19 7 12.49 1.01
 0 20 7 246.38 4.47
 0 21 7 1.66 0.73
 0 0 8 44.6 2.76
 0 1 8 6.54 1.73
 0 2 8 15.87 2.09
 0 3 8 28.64 2.46
 0 6 8 18.71 1.49
 0 7 8 108.66 2.85
 0 8 8 159.42 3.52
 0 9 8 22.35 1.58
 0 10 8 11.92 1.27
 0 11 8 73.05 2.55
 0 12 8 73.29 2.63
 0 13 8 58.58 2.46
 0 14 8 22.85 1.79
 0 16 8 1.82 0.73
 0 17 8 11.97 1.01
 0 19 8 16.82 1.4
 0 20 8 11.23 0.97
 0 1 9 15.53 2.12
 0 2 9 84.5 4
 0 3 9 115.42 4.62
 0 4 9 40.48 2.96
 0 7 9 84.76 2.77
 0 8 9 145.14 3.54
 0 9 9 30.02 1.96
 0 10 9 25.23 1.86
 0 11 9 4.08 0.95
 0 12 9 63.57 2.55
 0 13 9 53.11 2.44
 0 15 9 86.18 3
 0 16 9 26.35 1.99
 0 17 9 28.29 1.79
 0 18 9 15.64 1.17
 0 0 10 8.77 2.23
 0 2 10 37.73 3.17
 0 3 10 89.22 4.39
 0 4 10 51.64 3.54
 0 5 10 59.59 3.74
 0 6 10 75.83 4.25
 0 7 10 99.03 4.75
 0 8 10 109.68 3.28
 0 9 10 12.27 1.19
 0 10 10 3.39 0.95
 0 11 10 29.85 2.09
 0 12 10 24.45 1.69
 0 13 10 22.85 1.92
 0 14 10 79.38 2.96
 0 15 10 10.67 1.17
 0 2 11 4.92 2.25
 0 3 11 12.38 2.7
 0 6 11 14.06 2.79
 0 7 11 5.64 2.46
 0 8 11 15.29 2.79
 0 9 11 14.58 1.4
 0 10 11 2.87 0.97
 0 11 11 15.21 1.53
 0 12 11 54.95 2.55
 0 1 12 49.22 4.1
 0 2 12 36.81 3.58
 0 3 12 211.76 7.21
 0 5 12 17.82 3.13
 0 6 12 101.64 5.03
 0 7 12 118.12 5.55
 1 1 0 458.31 4.3
 1 2 0 9999 105.88
 1 3 0 107.71 1.25
 1 4 0 3058.86 26.91
 1 5 0 616.67 6
 1 6 0 112.75 1.45
 1 7 0 35.08 0.8
 1 8 0 732.86 7.3
 1 9 0 5.94 0.63
 1 10 0 78.47 1.47
 1 11 0 176.57 2.48
 1 12 0 49.05 1.28
 1 13 0 104.47 1.97
 1 15 0 157.29 2.7
 1 16 0 44.58 1.55
 1 17 0 53.83 1.75
 1 18 0 1.69 0.69
 1 19 0 61.47 2.01
 1 20 0 73.39 2.27
 1 21 0 2.61 0.78
 1 22 0 7.28 0.86
 1 23 0 12.77 1.1
 1 24 0 17.84 1.43
 1 26 0 13.35 1.15
 1 0 1 139.94 1.51
 1 1 1 243.42 2.48
 1 2 1 189.75 2.01
 1 3 1 1982.08 17.63
 1 4 1 286.19 2.98
 1 5 1 798.02 7.71
 1 6 1 39.89 0.8
 1 7 1 618.45 6.22
 1 8 1 427.53 4.52
 1 9 1 423.34 4.62
 1 10 1 239.14 3.05
 1 11 1 31.25 1.02
 1 13 1 232.62 3.22
 1 14 1 53.91 1.51
 1 15 1 159.7 2.76
 1 16 1 112.6 2.35
 1 17 1 46.35 1.64
 1 18 1 43.35 1.69
 1 19 1 27.89 1.51
 1 20 1 10.61 0.88
 1 21 1 3.76 0.74
 1 22 1 63.37 2.2
 1 23 1 19.42 1.62
 1 24 1 38.16 1.96
 1 25 1 17.3 1.49
 1 26 1 3.65 0.88
 1 0 2 5659.64 65.86
 1 1 2 130.61 1.71
 1 2 2 1043.3 11.15
 1 3 2 353.75 3.69
 1 4 2 1939.66 17.56
 1 5 2 33.91 0.74
 1 6 2 400.04 4.21
 1 7 2 295.34 3.31
 1 8 2 18.68 0.78
 1 9 2 112.64 1.79
 1 10 2 108.4 1.82
 1 11 2 214.98 2.9
 1 12 2 210.35 2.96
 1 13 2 200.89 2.98
 1 14 2 99.72 2.07
 1 15 2 57.67 1.68
 1 16 2 50.35 1.71
 1 17 2 138.02 2.77
 1 18 2 200.66 3.52
 1 19 2 75.12 2.2
 1 20 2 17.69 1.28
 1 21 2 41.69 1.86
 1 22 2 66.68 2.33
 1 23 2 79.12 2.59
 1 24 2 19.42 1.45
 1 26 2 8.19 1.02
 1 0 3 58.4 1.68
 1 1 3 551.45 9.53
 1 2 3 409.67 4.8
 1 3 3 167.2 2.33
 1 4 3 174.37 2.44
 1 5 3 41.99 0.95
 1 6 3 251.74 2.98
 1 7 3 9.44 0.69
 1 8 3 469.61 5.12
 1 9 3 52.88 1.28
 1 10 3 145.25 2.25
 1 11 3 30.37 1.08
 1 12 3 58.86 1.53
 1 13 3 61.62 1.66
 1 14 3 209.34 3.24
 1 15 3 61.04 1.79
 1 16 3 16.95 1.12
 1 17 3 45.62 1.71
 1 18 3 48.34 1.82
 1 19 3 49.61 1.92
 1 20 3 14.15 1.21
 1 21 3 43 1.92
 1 22 3 13.11 1.12
 1 23 3 5.01 0.84
 1 24 3 14.82 1.17
 1 25 3 32.64 2.12
 1 0 4 598.58 10.63
 1 1 4 474.01 8.62
 1 2 4 52.4 1.9
 1 3 4 42.68 1.17
 1 4 4 199.92 2.85
 1 5 4 152.55 2.44
 1 6 4 237.63 3.41
 1 7 4 152.6 2.23
 1 8 4 82.34 1.62
 1 9 4 3.97 0.71
 1 10 4 41.4 1.28
 1 11 4 113.65 2.14
 1 12 4 256.79 3.63
 1 13 4 49.46 1.56
 1 14 4 71.84 1.94
 1 15 4 5.44 0.73
 1 16 4 42.98 1.66
 1 17 4 51.21 1.86
 1 18 4 106.79 2.66
 1 19 4 74.39 2.27
 1 20 4 16.85 1.45
 1 21 4 19.68 1.43
 1 22 4 39.68 1.9
 1 23 4 27.49 1.75
 1 24 4 3.89 0.78
 1 0 5 518.72 9.66
 1 1 5 223.16 4.93
 1 2 5 845.34 14.8
 1 3 5 321.39 6.63
 1 4 5 197.09 3.07
 1 5 5 15.6 0.97
 1 6 5 418.81 5.49
 1 7 5 132.99 2.53
 1 8 5 126.38 2.51
 1 9 5 164.15 2.66
 1 10 5 17.36 1.06
 1 11 5 65.36 1.73
 1 12 5 45.72 1.56
 1 13 5 81.54 2.1
 1 14 5 73.29 2.05
 1 15 5 54.41 1.86
 1 16 5 143.31 2.98
 1 17 5 20.89 1.45
 1 18 5 12.68 1.17
 1 19 5 34.06 1.77
 1 20 5 117.89 3
 1 21 5 45.77 2.03
 1 22 5 3.15 0.78
 1 23 5 8.34 0.91
 1 24 5 31.79 1.82
 1 2 6 13.76 1.51
 1 3 6 22.64 1.81
 1 4 6 29.16 1.97
 1 5 6 24.23 1.21
 1 6 6 39.91 1.49
 1 7 6 14.19 1.14
 1 8 6 16.57 1.25
 1 9 6 20.19 1.4
 1 10 6 4.43 0.8
 1 11 6 17.93 1.23
 1 12 6 52.87 1.75
 1 13 6 13.74 1.1
 1 14 6 51.08 1.82
 1 15 6 20.07 1.49
 1 16 6 5.44 0.78
 1 17 6 39.24 1.82
 1 18 6 25.27 1.64
 1 19 6 21.53 1.56
 1 20 6 57.61 2.27
 1 21 6 17.15 1.42
 1 22 6 15.74 1.38
 1 23 6 21.94 1.62
 1 0 7 452.02 9.39
 1 1 7 48.96 2.64
 1 2 7 111.88 3.85
 1 3 7 148.51 4.54
 1 4 7 257.65 6.41
 1 5 7 55.75 1.9
 1 6 7 112.55 2.68
 1 7 7 17.34 1.4
 1 8 7 102.73 2.64
 1 9 7 122.85 2.94
 1 10 7 34.21 1.75
 1 11 7 39.83 1.66
 1 12 7 3.48 0.84
 1 13 7 77.22 2.27
 1 14 7 44.9 1.92
 1 15 7 58.94 2.14
 1 16 7 47.15 1.96
 1 17 7 37.39 1.84
 1 18 7 78.51 2.53
 1 19 7 12.31 1.12
 1 20 7 28.17 1.81
 1 21 7 16.98 1.21
 1 0 8 19.05 2.2
 1 1 8 64.45 3.26
 1 2 8 36.22 2.63
 1 3 8 58.58 3.11
 1 4 8 59.79 3.2
 1 5 8 186.51 5.68
 1 6 8 27.45 1.68
 1 7 8 166.64 3.58
 1 8 8 5.92 0.89
 1 9 8 93.46 2.77
 1 10 8 72.47 2.51
 1 11 8 174.28 3.87
 1 12 8 21.47 1.77
 1 13 8 51.66 2.31
 1 14 8 2.2 0.93
 1 15 8 84.43 2.51
 1 16 8 10.19 0.95
 1 17 8 48.94 2.16
 1 18 8 9.96 0.95
 1 19 8 4.13 0.8
 1 1 9 4.08 1.82
 1 2 9 94.02 4.13
 1 4 9 5.94 2.07
 1 5 9 52.16 3.35
 1 6 9 18.34 2.36
 1 7 9 28.96 1.84
 1 8 9 15.23 1.36
 1 9 9 36.18 2.03
 1 10 9 53.96 2.4
 1 11 9 84.11 2.87
 1 12 9 16.31 1.51
 1 13 9 29.37 2.07
 1 14 9 14.45 1.51
 1 15 9 40.58 2.25
 1 16 9 78.34 2.89
 1 17 9 33.39 1.92
 1 18 9 21.12 1.64
 1 0 10 6.35 2.14
 1 1 10 46.94 3.43
 1 3 10 36.78 3.13
 1 4 10 39.61 3.31
 1 5 10 59.64 3.82
 1 6 10 75.9 4.21
 1 7 10 57.84 3.84
 1 8 10 44.75 2.29
 1 9 10 13.46 1.47
 1 10 10 102.12 3.28
 1 11 10 29.74 2.09
 1 12 10 83.14 3
 1 14 10 11.99 1.21
 1 15 10 19.22 1.6
 1 1 11 21.9 2.94
 1 2 11 61.71 4.12
 1 3 11 42.7 3.56
 1 4 11 21.71 2.96
 1 5 11 11.21 2.64
 1 6 11 7.21 2.46
 1 7 11 15.72 2.89
 1 8 11 28.51 2.16
 1 9 11 42.92 2.38
 1 10 11 34.17 2.23
 1 11 11 6.57 1.08
 1 12 11 2.94 0.97
 1 0 12 32.62 3.52
 1 1 12 138.65 5.81
 1 2 12 15.14 3.17
 1 4 12 53 4.04
 1 5 12 125.19 5.68
 1 7 12 41.71 3.8
 2 0 0 76.4 0.97
 2 1 0 56.7 0.8
 2 2 0 3058.81 26.95
 2 3 0 1433.21 13.07
 2 4 0 65.32 0.97
 2 5 0 166.05 1.97
 2 6 0 3792.08 33.67
 2 7 0 535.23 5.47
 2 8 0 1.4 0.56
 2 9 0 428.09 4.71
 2 10 0 463.45 5.08
 2 11 0 4.39 0.65
 2 12 0 79.07 1.66
 2 13 0 306.04 3.91
 2 14 0 19.92 1.1
 2 15 0 127.44 2.42
 2 16 0 67.41 1.86
 2 17 0 65.01 1.9
 2 18 0 79.64 2.18
 2 19 0 68.81 2.12
 2 20 0 1.68 0.67
 2 21 0 14.1 1.17
 2 22 0 27.56 1.69
 2 23 0 20.33 1.6
 2 24 0 59.01 2.25
 2 25 0 7.5 1.04
 2 26 0 1.96 0.82
 2 0 1 2.98 0.3
 2 1 1 142.14 1.6
 2 2 1 505.48 4.97
 2 3 1 977.46 9.2
 2 4 1 287.53 3.04
 2 5 1 777.63 7.56
 2 6 1 41.75 0.88
 2 7 1 178.52 2.23
 2 8 1 8.83 0.65
 2 9 1 497.79 5.36
 2 10 1 15.87 0.84
 2 11 1 8.66 0.78
 2 12 1 74.15 1.62
 2 13 1 145.45 2.46
 2 14 1 81.51 1.86
 2 15 1 43.28 1.47
 2 16 1 6.5 0.73
 2 17 1 18.36 1.27
 2 18 1 18.14 1.32
 2 19 1 53.28 1.94
 2 20 1 130.57 2.98
 2 21 1 52.61 2.05
 2 22 1 42.51 1.96
 2 23 1 4.67 0.82
 2 24 1 74.97 2.44
 2 25 1 41.9 2.4
 2 26 1 55.53 2.64
 2 0 2 7.65 0.41
 2 1 2 562.37 5.57
 2 2 2 1976.08 17.88
 2 3 2 195.15 2.29
 2 4 2 162.3 1.99
 2 5 2 15.29 0.63
 2 6 2 532.27 5.49
 2 7 2 255.82 3.04
 2 8 2 262.56 3.2
 2 9 2 233.51 2.94
 2 10 2 4.82 0.67
 2 11 2 116.83 2.05
 2 12 2 104.45 1.97
 2 13 2 133.94 2.38
 2 14 2 61.64 1.66
 2 15 2 57.99 1.71
 2 16 2 133.46 2.66
 2 18 2 19.72 1.34
 2 19 2 2.07 0.67
 2 20 2 58.04 2.05
 2 21 2 55.12 2.12
 2 22 2 6.5 0.86
 2 23 2 4.62 0.82
 2 24 2 15.88 1.38
 2 25 2 72.75 3.04
 2 0 3 240.74 2.79
 2 1 3 255.86 2.89
 2 2 3 699.25 6.93
 2 3 3 816.94 8.08
 2 4 3 120.01 1.71
 2 5 3 454.57 4.86
 2 6 3 165.9 2.23
 2 7 3 197.98 2.57
 2 8 3 218.09 2.83
 2 9 3 527.62 5.81
 2 10 3 468.4 5.33
 2 11 3 21.9 1.06
 2 12 3 154 2.57
 2 13 3 79.96 1.88
 2 14 3 87.84 2.07
 2 15 3 30.95 1.45
 2 16 3 5.08 0.73
 2 17 3 23.26 1.38
 2 18 3 3.84 0.71
 2 19 3 70.84 2.22
 2 20 3 18.01 1.21
 2 21 3 78.99 2.5
 2 22 3 14.23 1.3
 2 23 3 9.5 1.04
 2 25 3 23.8 1.96
 2 0 4 103.5 2.79
 2 1 4 194.85 2.81
 2 2 4 239.08 3.33
 2 3 4 243.12 3.37
 2 4 4 23.71 1.04
 2 5 4 109.07 1.79
 2 6 4 197.26 2.64
 2 7 4 186.83 2.61
 2 8 4 212.36 2.9
 2 9 4 88.66 1.79
 2 10 4 252.15 3.43
 2 11 4 90.82 1.96
 2 12 4 23.11 1.19
 2 14 4 21.32 1.28
 2 15 4 23.39 1.36
 2 16 4 45.94 1.68
 2 17 4 70.65 2.16
 2 18 4 46.26 1.9
 2 19 4 15.88 1.28
 2 20 4 48.58 1.99
 2 21 4 36.96 1.9
 2 22 4 30.59 1.88
 2 23 4 42.74 1.96
 2 24 4 6.09 0.86
 2 0 5 263.42 5.66
 2 1 5 61.92 2.38
 2 2 5 294.12 4.1
 2 3 5 57.67 1.55
 2 4 5 270.46 3.87
 2 5 5 116.22 2.27
 2 6 5 22.76 1.15
 2 7 5 25.81 1.28
 2 8 5 114.37 2.14
 2 9 5 47.76 1.47
 2 10 5 252.73 3.59
 2 11 5 110 2.29
 2 12 5 26.09 1.36
 2 13 5 4.12 0.69
 2 14 5 168.52 3.13
 2 15 5 23.17 1.4
 2 16 5 2.07 0.65
 2 17 5 9.72 0.88
 2 18 5 80.8 2.5
 2 19 5 20.28 1.53
 2 20 5 2.57 0.76
 2 21 5 1.73 0.74
 2 22 5 38.23 1.9
 2 23 5 29.98 1.86
 2 0 6 139.42 4.02
 2 1 6 171.32 4.56
 2 2 6 4.21 1.3
 2 3 6 4.12 1.04
 2 4 6 41.27 1.49
 2 5 6 179.75 3.2
 2 7 6 140.65 2.85
 2 9 6 8.98 0.88
 2 10 6 22.08 1.27
 2 11 6 190.5 3.26
 2 12 6 14.38 0.99
 2 13 6 113.63 2.59
 2 14 6 20.54 1.36
 2 15 6 103.52 2.63
 2 16 6 28.03 1.64
 2 17 6 85.55 2.5
 2 18 6 90.52 2.66
 2 19 6 4.28 0.8
 2 20 6 6.95 0.88
 2 21 6 25.06 1.75
 2 22 6 83.35 2.59
 2 0 7 13.52 1.79
 2 1 7 80.11 3.31
 2 2 7 22.9 2.05
 2 3 7 26.41 2.18
 2 4 7 237.68 4.88
 2 5 7 129.47 2.87
 2 6 7 53.48 1.94
 2 7 7 152.58 3.24
 2 8 7 150.22 3.22
 2 9 7 9.09 0.97
 2 10 7 17.32 1.45
 2 11 7 178 3.76
 2 12 7 3.97 0.71
 2 13 7 89.22 2.48
 2 14 7 73.41 2.27
 2 15 7 59.76 2.18
 2 16 7 7.82 0.88
 2 17 7 92.68 2.7
 2 18 7 18.04 1.4
 2 19 7 12.77 1.15
 2 20 7 1.79 0.74
 2 21 7 18.96 1.45
 2 0 8 98.62 4
 2 1 8 107.26 4.19
 2 2 8 43 2.89
 2 3 8 52.94 3.05
 2 4 8 29.05 2.51
 2 5 8 103.09 2.77
 2 6 8 85.81 2.63
 2 7 8 76.27 2.5
 2 9 8 21.45 1.45
 2 10 8 2.57 0.89
 2 11 8 15.55 1.42
 2 13 8 57.3 2.5
 2 14 8 18.19 1.47
 2 15 8 12.79 1.27
 2 16 8 5.92 0.86
 2 17 8 42.87 2.07
 2 18 8 3.5 0.78
 2 19 8 12.25 0.99
 2 0 9 138.06 5.05
 2 1 9 31.88 2.74
 2 2 9 199.47 6.26
 2 3 9 9.78 2.01
 2 4 9 88.95 4.19
 2 5 9 20.91 2.53
 2 6 9 90.93 2.87
 2 7 9 19.27 1.68
 2 8 9 6.13 0.99
 2 9 9 69.96 2.61
 2 10 9 25.75 1.86
 2 11 9 28.51 1.96
 2 12 9 31.67 2.07
 2 13 9 64.08 2.66
 2 14 9 131.86 3.61
 2 16 9 28.32 1.84
 2 17 9 7.9 0.95
 2 0 10 90.63 4.47
 2 1 10 122.53 5.16
 2 2 10 5.21 2.16
 2 3 10 11.97 2.44
 2 4 10 8.55 2.29
 2 5 10 85.12 4.39
 2 6 10 30.95 3.04
 2 7 10 47.82 2.4
 2 8 10 55.44 2.55
 2 9 10 22.29 1.68
 2 10 10 61.1 2.64
 2 11 10 80.84 2.89
 2 12 10 88.14 3.07
 2 13 10 12.94 1.25
 2 14 10 31.17 2.1
 2 15 10 5.38 1.04
 2 0 11 22.96 3.05
 2 1 11 18.08 2.9
 2 2 11 6.03 2.5
 2 3 11 13.24 2.66
 2 6 11 24.88 3.05
 2 8 11 10.32 1.19
 2 10 11 11.49 1.43
 2 11 11 8.36 1.12
 2 0 12 85.12 4.82
 2 1 12 37.52 3.82
 2 2 12 11.34 2.96
 2 3 12 77.71 4.62
 2 4 12 20.39 3.24
 2 6 12 53.5 4.04
 3 1 0 56.5 0.93
 3 3 0 126.05 1.6
 3 4 0 753.4 7.36
 3 5 0 380.01 4.04
 3 6 0 71.84 1.27
 3 7 0 442.84 4.75
 3 8 0 147.13 2.1
 3 9 0 196.33 2.63
 3 10 0 54.73 1.32
 3 11 0 457.99 5.21
 3 12 0 14.92 0.97
 3 13 0 4.99 0.82
 3 14 0 6.83 0.89
 3 15 0 43.78 1.55
 3 16 0 78.19 2.07
 3 17 0 77.06 2.12
 3 18 0 3.89 0.69
 3 19 0 5.36 0.76
 3 20 0 50.87 1.96
 3 21 0 55.34 2.09
 3 22 0 7.43 0.88
 3 24 0 14.67 1.19
 3 25 0 53.87 2.61
 3 0 1 320.03 3.39
 3 1 1 672.23 6.63
 3 2 1 107.43 1.43
 3 3 1 791.2 7.75
 3 4 1 149.18 1.9
 3 5 1 44.26 0.97
 3 6 1 125.62 1.79
 3 7 1 290.05 3.39
 3 8 1 77.8 1.47
 3 9 1 696.1 7.32
 3 10 1 67.24 1.49
 3 11 1 97.61 1.88
 3 12 1 99.12 1.97
 3 13 1 163.14 2.76
 3 14 1 49.31 1.56
 3 15 1 3.63 0.67
 3 16 1 71.73 1.99
 3 17 1 54.99 1.84
 3 18 1 93.05 2.42
 3 19 1 35.94 1.68
 3 20 1 6.74 0.82
 3 21 1 123.29 2.98
 3 22 1 112.92 2.98
 3 23 1 28.17 1.73
 3 24 1 54.34 2.2
 3 25 1 14.21 1.4
 3 1 2 327.42 3.58
 3 2 2 495.18 5.08
 3 3 2 486.07 5.05
 3 4 2 100.33 1.56
 3 5 2 573.67 5.94
 3 6 2 1162.37 11.4
 3 7 2 13.3 0.76
 3 8 2 162.12 2.31
 3 9 2 113.37 1.92
 3 10 2 462.56 5.25
 3 11 2 63.05 1.55
 3 12 2 193.9 2.96
 3 13 2 47.76 1.49
 3 14 2 12.1 1.08
 3 15 2 23.5 1.3
 3 16 2 66.87 1.94
 3 17 2 51.97 1.82
 3 18 2 16.48 1.3
 3 19 2 10.07 0.99
 3 20 2 21.06 1.53
 3 22 2 5.12 0.82
 3 23 2 17.88 1.58
 3 24 2 50.22 2.14
 3 25 2 8.27 1.02
 3 0 3 334.09 3.72
 3 1 3 458.05 4.86
 3 2 3 31.69 0.93
 3 3 3 304.61 3.5
 3 4 3 22.98 0.88
 3 5 3 389.89 4.32
 3 6 3 6.18 0.69
 3 7 3 463.32 5.14
 3 8 3 78.47 1.58
 3 9 3 47.65 1.32
 3 10 3 21.06 1.02
 3 11 3 138.26 2.4
 3 12 3 73.16 1.77
 3 13 3 22.62 1.21
 3 14 3 16.52 1.08
 3 15 3 21.92 1.32
 3 16 3 3.72 0.71
 3 17 3 14.9 1.15
 3 19 3 18.73 1.49
 3 20 3 11.14 0.95
 3 21 3 2.94 0.76
 3 22 3 11.64 0.99
 3 23 3 72.51 2.51
 3 24 3 15.49 1.32
 3 0 4 21.1 0.86
 3 1 4 206.44 2.68
 3 2 4 56.4 1.27
 3 3 4 145.9 2.16
 3 4 4 45.53 1.17
 3 5 4 492.82 5.44
 3 6 4 145.69 2.27
 3 7 4 108.43 1.96
 3 8 4 98.15 1.92
 3 9 4 122.73 2.22
 3 10 4 38.23 1.32
 3 11 4 52.85 1.6
 3 12 4 54.6 1.64
 3 13 4 190.66 3.18
 3 14 4 18.3 1.25
 3 15 4 68.45 2.03
 3 16 4 31.49 1.53
 3 17 4 58.62 2.03
 3 18 4 46.4 1.92
 3 19 4 30.73 1.71
 3 20 4 37.97 1.84
 3 21 4 46.89 2.03
 3 22 4 12.7 1.14
 3 23 4 18.3 1.56
 3 24 4 1.99 0.74
 3 0 5 90.98 1.77
 3 1 5 81.45 1.68
 3 2 5 64.6 1.51
 3 3 5 133.42 2.22
 3 4 5 130.5 2.22
 3 5 5 131.86 2.25
 3 6 5 80.15 1.75
 3 7 5 223.27 3.2
 3 8 5 340.92 4.36
 3 9 5 3.31 0.86
 3 10 5 243.23 3.61
 3 11 5 13.3 0.97
 3 12 5 224.93 3.58
 3 13 5 18.71 1.3
 3 14 5 116.46 2.66
 3 15 5 80.56 2.27
 3 16 5 18.23 1.42
 3 17 5 5.72 0.8
 3 18 5 11.66 0.97
 3 19 5 19.31 1.42
 3 20 5 5.16 0.84
 3 21 5 6.52 0.88
 3 22 5 27.56 1.81
 3 23 5 6.87 0.88
 3 1 6 6.89 0.93
 3 2 6 75.96 1.99
 3 3 6 8.79 1.02
 3 4 6 17.41 1.23
 3 5 6 38.3 1.56
 3 6 6 33.95 1.56
 3 7 6 71.66 2.09
 3 8 6 34.19 1.45
 3 9 6 59.03 1.77
 3 10 6 43.7 1.62
 3 11 6 123.63 2.64
 3 12 6 6.57 0.78
 3 13 6 102.96 2.55
 3 14 6 46.89 1.86
 3 15 6 13.09 1.06
 3 16 6 75.94 2.38
 3 17 6 43.67 1.94
 3 18 6 18.55 1.4
 3 19 6 39.74 1.97
 3 20 6 115.58 3.02
 3 21 6 10.52 0.97
 3 22 6 9.39 0.93
 3 0 7 10.78 1.82
 3 2 7 275.76 6.8
 3 3 7 52.83 1.96
 3 4 7 17.56 1.43
 3 5 7 58.43 2.05
 3 6 7 21.88 1.55
 3 7 7 65.58 2.2
 3 8 7 20.32 1.56
 3 9 7 198.41 3.89
 3 10 7 92.23 2.38
 3 11 7 11.23 0.88
 3 12 7 4.36 0.73
 3 13 7 69.42 2.23
 3 14 7 89.36 2.51
 3 15 7 67.76 2.31
 3 16 7 5.07 0.82
 3 17 7 5.16 0.82
 3 18 7 14.26 1.15
 3 19 7 37.97 1.97
 3 20 7 16.7 1.36
 3 21 7 9.48 0.93
 3 0 8 3.89 1.82
 3 1 8 207.35 6.05
 3 2 8 108.38 4.28
 3 3 8 83.54 3.82
 3 4 8 71.04 2.38
 3 5 8 70.26 2.38
 3 6 8 47.76 2.07
 3 7 8 55.14 2.2
 3 8 8 60.85 2.35
 3 9 8 40.41 2.05
 3 10 8 8.03 1.02
 3 11 8 182.14 4.04
 3 12 8 31.47 1.96
 3 13 8 11.51 1.06
 3 14 8 8.36 0.89
 3 15 8 32.83 1.81
 3 16 8 27.97 1.81
 3 17 8 20.43 1.64
 3 18 8 15.16 1.17
 3 19 8 42.07 2.03
 3 0 9 125.75 4.93
 3 1 9 21.77 2.57
 3 2 9 35.32 2.94
 3 3 9 25.42 2.72
 3 4 9 185.79 6.15
 3 6 9 14.75 1.21
 3 7 9 16.44 1.36
 3 8 9 78.81 2.79
 3 9 9 11.47 1.17
 3 10 9 50.93 2.36
 3 11 9 7.75 1.08
 3 12 9 8.99 1.12
 3 13 9 2.81 0.97
 3 14 9 56.78 2.48
 3 15 9 11.69 1.12
 3 16 9 16.44 1.21
 3 17 9 39.7 1.97
 3 1 10 104.58 4.75
 3 2 10 50.59 3.65
 3 3 10 150.29 5.79
 3 4 10 21.77 2.87
 3 5 10 13.03 2.57
 3 6 10 42.53 2.27
 3 7 10 21.32 1.62
 3 8 10 13.22 1.25
 3 9 10 60.82 2.64
 3 10 10 13.84 1.53
 3 11 10 8.34 1.12
 3 12 10 2.05 0.93
 3 13 10 34.73 2.22
 3 14 10 30.93 2.07
 3 1 11 20 3.05
 3 2 11 27.62 3.15
 3 3 11 63.5 4.15
 3 4 11 30.87 3.41
 3 5 11 28.53 3.18
 3 6 11 22.12 3.09
 3 7 11 41.12 2.35
 3 8 11 11.88 1.47
 3 9 11 19.61 1.53
 3 10 11 16.37 1.58
 3 11 11 17.13 5.36
 3 0 12 10.06 3.04
 3 1 12 13.33 3.05
 3 2 12 5.96 2.79
 4 0 0 715.36 7.09
 4 1 0 704.67 7.08
 4 2 0 73.42 1.28
 4 3 0 3.2 0.56
 4 4 0 67.45 1.28
 4 5 0 28.12 0.93
 4 6 0 240.07 2.98
 4 7 0 160.61 2.31
 4 8 0 241.48 3.11
 4 9 0 237.42 3.15
 4 10 0 126.01 2.18
 4 11 0 23.09 1.12
 4 12 0 438.31 5.42
 4 13 0 126.18 2.38
 4 14 0 5.14 0.67
 4 15 0 23.05 1.3
 4 16 0 165.06 3.09
 4 17 0 2.16 0.63
 4 18 0 3.72 0.71
 4 19 0 13.22 1.21
 4 21 0 14.56 1.14
 4 23 0 8.73 0.93
 4 24 0 39.83 1.97
 4 0 1 2.66 0.54
 4 1 1 270.9 3.11
 4 2 1 63.11 1.21
 4 3 1 274.67 3.18
 4 4 1 22.12 0.84
 4 5 1 109.42 1.73
 4 6 1 79.29 1.49
 4 7 1 447.47 4.97
 4 8 1 78.32 1.58
 4 9 1 7.75 0.74
 4 10 1 62.42 1.51
 4 11 1 485.66 5.64
 4 12 1 123.53 2.33
 4 13 1 78.32 1.92
 4 14 1 84.15 2.05
 4 15 1 82.06 2.12
 4 16 1 95.64 2.35
 4 17 1 31.08 1.58
 4 18 1 56.53 1.96
 4 19 1 77.69 2.33
 4 20 1 59.57 2.16
 4 21 1 14.08 1.27
 4 22 1 26.05 1.75
 4 23 1 3.98 0.82
 4 24 1 35.75 1.92
 4 25 1 9.53 1.06
 4 0 2 19.57 0.8
 4 1 2 481.77 5.16
 4 2 2 17.65 0.82
 4 3 2 136.98 1.97
 4 4 2 364.53 4.1
 4 5 2 247.53 3.11
 4 6 2 58.96 1.32
 4 7 2 322.78 3.91
 4 8 2 294.31 3.67
 4 9 2 10.28 0.82
 4 10 2 75.14 1.69
 4 11 2 34.1 1.27
 4 12 2 84.43 1.94
 4 14 2 26.29 1.34
 4 15 2 27.45 1.42
 4 16 2 30.17 1.53
 4 17 2 35.29 1.66
 4 18 2 11.15 0.99
 4 19 2 20.43 1.51
 4 20 2 15.38 1.12
 4 21 2 17.34 1.51
 4 22 2 17.71 1.21
 4 23 2 32.31 1.88
 4 24 2 2.94 0.76
 4 0 3 8.53 0.71
 4 1 3 409.39 4.52
 4 2 3 70.05 1.43
 4 3 3 845.58 8.55
 4 4 3 173.35 2.44
 4 5 3 197.68 2.72
 4 6 3 9.89 0.78
 4 7 3 110.22 1.97
 4 8 3 158.8 2.53
 4 9 3 58.3 1.51
 4 10 3 30.86 1.23
 4 11 3 54.13 1.58
 4 12 3 76.66 1.94
 4 13 3 22.46 1.28
 4 14 3 41.04 1.62
 4 15 3 134.28 2.77
 4 16 3 49.85 1.84
 4 17 3 1.75 0.65
 4 18 3 39.4 1.81
 4 19 3 63.89 2.18
 4 20 3 24.08 1.6
 4 21 3 61.56 2.29
 4 22 3 46.39 2.12
 4 23 3 1.81 0.74
 4 24 3 25.44 1.77
 4 0 4 140.91 2.18
 4 1 4 226.08 2.98
 4 2 4 62.2 1.43
 4 3 4 176.34 2.55
 4 4 4 64 1.47
 4 5 4 159.18 2.48
 4 6 4 102.23 1.96
 4 7 4 78.34 1.75
 4 8 4 16.28 0.99
 4 9 4 2.63 0.82
 4 10 4 65.81 1.75
 4 11 4 44.77 1.53
 4 12 4 125.77 2.55
 4 13 4 47.58 1.69
 4 14 4 16.76 1.15
 4 15 4 73 2.18
 4 16 4 98.32 2.55
 4 17 4 108.6 2.76
 4 18 4 2.89 0.74
 4 19 4 15.49 1.15
 4 20 4 41.08 1.99
 4 21 4 36.68 1.9
 4 22 4 3.8 0.86
 4 23 4 116.64 3.02
 4 0 5 50.91 1.42
 4 1 5 41.97 1.3
 4 2 5 11.3 0.89
 4 3 5 298.78 3.85
 4 4 5 52.14 1.45
 4 5 5 154.39 2.57
 4 6 5 25.12 1.14
 4 7 5 64.21 1.71
 4 8 5 87.93 1.99
 4 9 5 81.92 2.03
 4 10 5 49.51 1.62
 4 11 5 18.03 1.21
 4 12 5 35.23 1.58
 4 13 5 12.27 1.08
 4 14 5 15.51 1.17
 4 15 5 3.58 0.73
 4 16 5 38.66 1.81
 4 17 5 18.9 1.47
 4 18 5 4.21 0.8
 4 19 5 9.94 0.95
 4 20 5 52.98 2.18
 4 21 5 4.06 0.8
 4 22 5 1.97 0.74
 4 1 6 161.32 2.74
 4 2 6 27.93 1.25
 4 3 6 46.93 1.53
 4 4 6 21.64 1.21
 4 5 6 251.72 3.69
 4 6 6 75.3 1.96
 4 7 6 73.7 1.97
 4 8 6 98.88 2.33
 4 9 6 247.55 3.87
 4 10 6 48.19 1.79
 4 11 6 66.65 1.99
 4 12 6 115.27 2.68
 4 13 6 89.96 2.42
 4 14 6 22.79 1.51
 4 15 6 99.68 2.68
 4 16 6 33.33 1.77
 4 17 6 77.24 2.48
 4 18 6 48.51 2.07
 4 19 6 67.61 2.36
 4 20 6 3.39 0.78
 4 21 6 41.02 2.01
 4 0 7 252.26 3.84
 4 1 7 17.21 1.3
 4 2 7 23.43 1.53
 4 3 7 22.1 1.49
 4 4 7 118.99 2.89
 4 5 7 29.92 1.66
 4 6 7 36.76 1.56
 4 7 7 47.73 1.77
 4 8 7 94.22 2.4
 4 9 7 11.38 1.08
 4 10 7 80.15 2.25
 4 11 7 95.1 2.53
 4 12 7 73.05 2.25
 4 13 7 19.2 1.34
 4 14 7 55.86 2.14
 4 15 7 3.87 0.78
 4 16 7 6.15 0.86
 4 17 7 17.17 1.42
 4 18 7 10.41 0.97
 4 19 7 23.59 1.66
 4 20 7 3.56 0.78
 4 0 8 80.85 3.82
 4 1 8 35.85 2.27
 4 2 8 25.06 1.66
 4 3 8 21.56 1.62
 4 4 8 53.28 2.16
 4 5 8 8.04 0.99
 4 6 8 16.5 1.4
 4 7 8 59.5 2.36
 4 8 8 6.82 0.99
 4 9 8 162.73 3.85
 4 10 8 34.99 1.81
 4 11 8 16.14 1.34
 4 12 8 1.55 0.73
 4 13 8 95.94 2.76
 4 14 8 62.29 2.31
 4 15 8 4.1 0.82
 4 16 8 17.91 1.43
 4 18 8 29.68 1.81
 4 0 9 35.14 3.02
 4 1 9 25.03 2.72
 4 2 9 24.3 2.66
 4 3 9 44.15 2.2
 4 4 9 108.32 3.13
 4 5 9 25.36 1.84
 4 6 9 66.11 2.64
 4 7 9 10.22 1.14
 4 8 9 155.67 3.87
 4 9 9 31.1 2.01
 4 10 9 36.37 2.1
 4 12 9 43.5 2.36
 4 13 9 16.98 1.4
 4 14 9 21.49 1.64
 4 15 9 48.45 2.1
 4 16 9 4.49 0.82
 4 1 10 151.65 5.88
 4 2 10 25.94 3
 4 3 10 5.66 2.35
 4 4 10 55.27 2.5
 4 5 10 105.49 3.33
 4 6 10 51.38 2.5
 4 7 10 28.47 2.03
 4 8 10 28.3 2.03
 4 10 10 27.54 2.03
 4 11 10 12.9 1.25
 4 12 10 2.96 0.99
 4 13 10 15.87 1.3
 4 0 11 50.91 3.89
 4 2 11 5.79 2.46
 4 3 11 16.48 2.87
 4 4 11 60.3 4.12
 4 5 11 23.98 2.46
 4 7 11 12.35 1.23
 4 8 11 37.62 2.33
 4 9 11 17.97 1.56
 5 1 0 73.33 1.42
 5 2 0 79.68 1.51
 5 3 0 421.85 4.69
 5 4 0 111.41 1.86
 5 5 0 133.42 2.09
 5 7 0 21.53 0.99
 5 8 0 29.85 1.12
 5 9 0 46.68 1.36
 5 10 0 70.43 1.69
 5 11 0 67.39 1.75
 5 12 0 2.96 0.88
 5 13 0 22.33 1.28
 5 14 0 96.11 2.29
 5 15 0 28.14 1.51
 5 16 0 8.38 0.78
 5 17 0 19.2 1.27
 5 18 0 11.49 1.17
 5 21 0 1.68 0.73
 5 22 0 14.51 1.15
 5 24 0 3.76 0.8
 5 0 1 10.89 0.74
 5 1 1 244.13 3.04
 5 2 1 166.07 2.35
 5 3 1 696.87 7.13
 5 4 1 9.68 0.74
 5 5 1 65.16 1.42
 5 6 1 129.88 2.12
 5 7 1 281.93 3.58
 5 8 1 5.85 0.76
 5 9 1 106.64 2.07
 5 10 1 23.24 1.12
 5 11 1 125.02 2.35
 5 12 1 39.74 1.49
 5 13 1 34.71 1.53
 5 14 1 29.59 1.43
 5 15 1 398.26 5.34
 5 16 1 112.21 2.63
 5 17 1 7.78 0.82
 5 18 1 14.1 1.25
 5 19 1 98.02 2.72
 5 20 1 94.54 2.66
 5 21 1 6.42 0.88
 5 22 1 1.66 0.74
 5 23 1 3.44 0.78
 5 24 1 26.78 1.71
 5 0 2 604.52 6.41
 5 1 2 309.54 3.74
 5 3 2 461.14 5.2
 5 4 2 156.79 2.36
 5 5 2 77.87 1.62
 5 6 2 12.05 0.84
 5 7 2 23.65 1.06
 5 8 2 53.29 1.47
 5 9 2 68.45 1.68
 5 10 2 2.55 0.8
 5 11 2 29.74 1.32
 5 12 2 227.44 3.54
 5 14 2 13.82 1.21
 5 15 2 5.62 0.73
 5 16 2 110.8 2.66
 5 17 2 26.91 1.56
 5 18 2 21.14 1.49
 5 19 2 55.51 2.09
 5 20 2 3.95 0.8
 5 21 2 71.47 2.42
 5 22 2 3.24 0.78
 5 23 2 9.79 1.04
 5 24 2 13.46 1.64
 5 0 3 56.89 1.4
 5 1 3 363.3 4.32
 5 2 3 44.77 1.27
 5 3 3 17.49 0.93
 5 4 3 2.48 0.71
 5 5 3 125.56 2.16
 5 6 3 63.63 1.56
 5 7 3 117.2 2.18
 5 8 3 34.02 1.27
 5 9 3 16.59 1.08
 5 10 3 79.12 1.94
 5 11 3 47.39 1.62
 5 12 3 50.22 1.71
 5 13 3 35.01 1.55
 5 14 3 86.09 2.25
 5 15 3 6.82 0.76
 5 16 3 93.07 2.53
 5 17 3 43.43 1.86
 5 18 3 43.83 1.94
 5 19 3 8.1 0.89
 5 20 3 103.48 2.87
 5 21 3 15.1 1.19
 5 22 3 8.79 0.93
 5 23 3 15.85 1.17
 5 1 4 127.85 2.22
 5 2 4 79.85 1.73
 5 3 4 51.79 1.47
 5 4 4 31.6 1.21
 5 5 4 11.41 0.93
 5 6 4 51.92 1.53
 5 7 4 55.06 1.58
 5 8 4 163.61 2.79
 5 9 4 4.88 0.69
 5 10 4 204.78 3.35
 5 11 4 63.31 1.9
 5 12 4 156.74 2.98
 5 13 4 8.04 0.78
 5 14 4 157.5 3.15
 5 15 4 37.84 1.77
 5 16 4 40.59 1.82
 5 17 4 15.1 1.27
 5 18 4 46.68 1.99
 5 19 4 138.52 3.28
 5 21 4 80.78 2.57
 5 22 4 21.47 1.71
 5 0 5 12.92 1.02
 5 1 5 340.4 4.36
 5 2 5 58.19 1.62
 5 3 5 29.44 1.23
 5 4 5 133.37 2.5
 5 5 5 108.86 2.27
 5 6 5 34.06 1.43
 5 7 5 63.09 1.79
 5 8 5 91.84 2.2
 5 9 5 19.96 1.28
 5 10 5 34.64 1.53
 5 11 5 37.32 1.64
 5 12 5 1.77 0.63
 5 13 5 32.49 1.66
 5 14 5 77.3 2.27
 5 15 5 2.4 0.73
 5 16 5 34.23 1.73
 5 17 5 6.72 0.86
 5 18 5 54 2.14
 5 19 5 5.75 0.88
 5 20 5 21.81 1.71
 5 21 5 16.13 1.21
 5 0 6 86.59 2.1
 5 1 6 83.09 2.03
 5 2 6 20.28 1.27
 5 3 6 98.64 2.25
 5 4 6 90.98 2.2
 5 5 6 146.74 2.83
 5 6 6 24.56 1.34
 5 7 6 191.45 3.33
 5 8 6 40.17 1.66
 5 9 6 38.51 1.62
 5 10 6 126.14 2.77
 5 11 6 146.42 3.05
 5 13 6 122.99 2.92
 5 14 6 98.58 2.68
 5 15 6 27.95 1.66
 5 16 6 9.74 0.93
 5 17 6 96.55 2.79
 5 18 6 13.24 1.17
 5 19 6 9.55 0.95
 5 0 7 2.72 0.67
 5 1 7 54.67 1.82
 5 2 7 30.58 1.55
 5 3 7 7.36 0.78
 5 4 7 196.68 3.44
 5 5 7 18.94 1.23
 5 6 7 38.42 1.66
 5 7 7 17.76 1.36
 5 8 7 183.16 3.46
 5 9 7 20.86 1.4
 5 10 7 3.69 0.74
 5 11 7 7.8 0.86
 5 12 7 24.25 1.45
 5 13 7 29.66 1.69
 5 14 7 11.71 0.99
 5 15 7 33.46 1.82
 5 16 7 14.36 1.36
 5 17 7 8.98 0.93
 5 18 7 5.36 0.84
 5 0 8 66.96 2.14
 5 1 8 87.32 2.4
 5 2 8 5.94 0.78
 5 4 8 35.66 1.75
 5 5 8 256.38 4.26
 5 7 8 9.61 0.89
 5 8 8 5.38 0.8
 5 9 8 44.15 1.94
 5 10 8 3.76 0.78
 5 11 8 23.26 1.6
 5 12 8 14.77 1.15
 5 13 8 59.35 2.31
 5 14 8 14.92 1.19
 5 15 8 16.13 1.19
 5 16 8 21.84 1.64
 5 17 8 107.71 2.9
 5 1 9 54.97 2.09
 5 2 9 64.88 2.59
 5 3 9 10.06 1.12
 5 4 9 11.38 1.15
 5 5 9 25.94 1.94
 5 6 9 49.85 2.35
 5 7 9 17.43 1.53
 5 8 9 2.03 0.93
 5 9 9 2.42 0.76
 5 10 9 39.01 1.96
 5 11 9 28.38 1.79
 5 12 9 3.13 0.78
 5 13 9 16.05 1.21
 5 14 9 12.42 1.01
 5 15 9 4.8 0.82
 5 0 10 137.13 5.72
 5 1 10 9.52 1.64
 5 2 10 5.2 1.04
 5 3 10 93.46 3.15
 5 4 10 44.95 2.35
 5 5 10 54.86 2.64
 5 6 10 12.09 1.25
 5 7 10 32.62 2.16
 5 8 10 12.76 1.25
 5 9 10 59.81 2.59
 5 11 10 3.71 0.97
 5 12 10 10.74 0.97
 5 0 11 6.83 2.77
 5 1 11 43.54 3.65
 5 2 11 22.46 2.94
 5 3 11 29.92 2.14
 5 4 11 20.09 1.66
 5 6 11 72.64 2.79
 5 7 11 4.43 1.02
 6 0 0 245.04 3.2
 6 1 0 120.85 2.05
 6 2 0 8.83 0.8
 6 3 0 57.71 1.45
 6 4 0 18.1 0.95
 6 5 0 139.34 2.35
 6 6 0 128.52 2.27
 6 7 0 153.74 2.59
 6 8 0 107.43 2.14
 6 10 0 160.22 2.85
 6 12 0 116.74 2.48
 6 13 0 39.1 1.64
 6 14 0 16.83 1.17
 6 15 0 51.84 1.86
 6 16 0 13.28 1.15
 6 17 0 16.28 1.27
 6 18 0 38.66 1.88
 6 19 0 12.7 1.25
 6 21 0 4.13 0.82
 6 22 0 42.9 2.01
 6 0 1 72.05 1.6
 6 1 1 215.95 2.98
 6 2 1 156.07 2.44
 6 3 1 138.69 2.29
 6 4 1 159.51 2.51
 6 5 1 190.44 2.85
 6 6 1 17.26 0.99
 6 7 1 111.17 2.16
 6 8 1 96.2 2.05
 6 9 1 2.66 0.86
 6 10 1 2.66 0.61
 6 11 1 48.55 1.64
 6 12 1 23.28 1.36
 6 13 1 217.78 3.61
 6 14 1 74.91 2.14
 6 15 1 33.8 1.62
 6 16 1 21.38 1.43
 6 17 1 130.93 3
 6 18 1 120.82 2.96
 6 19 1 33.72 1.79
 6 20 1 23.98 1.68
 6 21 1 14.64 1.19
 6 22 1 39.72 1.99
 6 23 1 17 1.58
 6 0 2 34.97 1.19
 6 1 2 207.55 2.96
 6 2 2 317.12 4
 6 3 2 6.03 0.78
 6 5 2 86.16 1.86
 6 6 2 17.3 1.02
 6 7 2 32.66 1.3
 6 8 2 84.73 1.97
 6 9 2 9.93 1.04
 6 10 2 193.55 3.22
 6 11 2 6.74 0.74
 6 12 2 55.49 1.86
 6 13 2 19.59 1.23
 6 14 2 165.94 3.26
 6 15 2 1.86 0.67
 6 16 2 12.68 1.06
 6 17 2 25.94 1.62
 6 18 2 13.57 1.12
 6 19 2 12.61 1.1
 6 20 2 3.33 0.8
 6 21 2 15.9 1.4
 6 22 2 11.32 0.99
 6 23 2 24.45 2.81
 6 0 3 22.35 1.08
 6 1 3 180.66 2.79
 6 2 3 30.13 1.23
 6 3 3 362.93 4.49
 6 4 3 121.08 2.27
 6 5 3 8.25 0.93
 6 6 3 44.37 1.45
 6 7 3 104.35 2.2
 6 8 3 41.47 1.51
 6 9 3 46.03 1.62
 6 10 3 2.35 0.65
 6 11 3 12.4 0.95
 6 12 3 37.58 1.64
 6 13 3 7.97 0.78
 6 14 3 87.11 2.42
 6 15 3 58.55 2.07
 6 16 3 51.41 2.03
 6 17 3 23.2 1.58
 6 18 3 126.16 3.11
 6 19 3 85.19 2.66
 6 20 3 5.47 0.86
 6 21 3 37.95 2.01
 6 22 3 52.42 2.18
 6 0 4 1.9 0.78
 6 1 4 170.35 2.83
 6 2 4 38.06 1.38
 6 3 4 102.9 2.16
 6 5 4 66.72 1.82
 6 6 4 121.36 2.46
 6 7 4 8.94 0.76
 6 8 4 30.63 1.43
 6 9 4 72.42 2.03
 6 10 4 87.54 2.27
 6 11 4 4.51 0.69
 6 12 4 49.53 1.84
 6 13 4 8.47 0.84
 6 14 4 71.9 2.27
 6 15 4 6.91 0.84
 6 16 4 57.86 2.14
 6 17 4 145.53 3.3
 6 18 4 17.91 1.43
 6 19 4 56.91 2.27
 6 20 4 22.4 1.68
 6 21 4 98.73 2.81
 6 0 5 25.9 1.36
 6 1 5 117.8 2.42
 6 2 5 35.62 1.45
 6 3 5 192.12 3.22
 6 4 5 34.58 1.49
 6 5 5 7.58 0.74
 6 6 5 79.4 2.07
 6 7 5 18.4 1.28
 6 9 5 61.1 1.97
 6 10 5 4.15 0.71
 6 11 5 35.03 1.68
 6 12 5 41.97 1.81
 6 13 5 17.28 1.14
 6 14 5 41 1.88
 6 15 5 3.46 0.76
 6 16 5 30.48 1.81
 6 17 5 3.43 0.78
 6 18 5 32.16 1.82
 6 19 5 10.89 0.99
 6 0 6 92.19 2.27
 6 1 6 183.16 3.24
 6 2 6 131.11 2.74
 6 3 6 101.26 2.4
 6 4 6 35.6 1.58
 6 5 6 144.24 2.92
 6 6 6 133.87 2.85
 6 7 6 11.49 0.88
 6 8 6 19.63 1.42
 6 9 6 137.69 3.02
 6 10 6 23.03 1.56
 6 11 6 60.15 2.12
 6 12 6 73.41 2.31
 6 13 6 62.98 2.25
 6 14 6 23.87 1.69
 6 15 6 78.9 2.5
 6 16 6 52.23 2.14
 6 17 6 41.32 1.99
 6 18 6 15.64 1.08
 6 19 6 25.94 1.71
 6 0 7 32.1 1.56
 6 1 7 4.08 0.71
 6 2 7 90.52 2.4
 6 3 7 21.41 1.45
 6 4 7 14.82 1.19
 6 5 7 37.5 1.68
 6 6 7 178.71 3.44
 6 7 7 4.19 0.76
 6 8 7 34.49 1.71
 6 9 7 9.24 0.99
 6 10 7 105.14 2.76
 6 11 7 9.29 0.91
 6 12 7 31.73 1.82
 6 13 7 28.17 1.77
 6 14 7 25.06 1.73
 6 15 7 6.39 0.88
 6 17 7 21.58 1.58
 6 18 7 12.85 1.01
 6 0 8 51.56 1.97
 6 1 8 2.27 0.71
 6 2 8 26.85 1.58
 6 3 8 89.7 2.51
 6 4 8 14.13 1.25
 6 5 8 6.18 0.82
 6 6 8 23.97 1.62
 6 7 8 96.7 2.66
 6 9 8 5.72 0.86
 6 10 8 14.23 1.19
 6 11 8 32.08 1.88
 6 12 8 4.38 0.84
 6 13 8 19.03 1.36
 6 14 8 27.8 1.77
 6 15 8 75.14 2.5
 6 16 8 38.49 1.97
 6 0 9 71.12 2.38
 6 1 9 2.03 0.74
 6 2 9 20.82 1.58
 6 3 9 20.41 1.49
 6 4 9 16.35 1.38
 6 5 9 4.93 0.82
 6 6 9 23.8 1.64
 6 7 9 12.79 1.02
 6 8 9 54.8 2.16
 6 9 9 10.61 0.97
 6 10 9 76.78 2.55
 6 11 9 11.95 1.12
 6 12 9 66.39 2.38
 6 13 9 25.42 1.73
 6 0 10 8.99 0.95
 6 1 10 79.23 2.53
 6 2 10 83.48 2.64
 6 3 10 2.94 0.84
 6 4 10 12.81 1.02
 6 5 10 94.09 2.76
 6 6 10 15.6 1.21
 6 7 10 41.13 2.03
 6 8 10 2.87 0.78
 6 9 10 8.27 0.91
 6 0 11 13.56 1.15
 6 1 11 53.98 2.53
 6 2 11 7.82 1.1
 7 2 0 130.24 2.36
 7 3 0 24.92 1.14
 7 4 0 6.95 0.93
 7 5 0 95.83 2.1
 7 6 0 38.47 1.45
 7 7 0 4.41 0.65
 7 8 0 63.18 1.81
 7 9 0 78.27 2.03
 7 10 0 178.64 3.18
 7 11 0 59.64 1.92
 7 12 0 44.26 1.73
 7 14 0 31.75 1.62
 7 15 0 27.58 1.62
 7 16 0 4.52 0.8
 7 17 0 20.95 1.56
 7 18 0 2.23 0.76
 7 19 0 5.64 0.86
 7 20 0 45.27 2.03
 7 21 0 32.51 1.86
 7 22 0 2.61 0.8
 7 0 1 398.93 4.92
 7 1 1 102.79 2.09
 7 2 1 28.97 1.25
 7 3 1 75.58 1.81
 7 4 1 127.46 2.38
 7 5 1 132.83 2.48
 7 6 1 72.6 1.86
 7 7 1 41.6 1.51
 7 8 1 2.09 0.63
 7 9 1 182.49 3.18
 7 10 1 34.69 1.55
 7 11 1 33.11 1.56
 7 13 1 67.32 2.1
 7 14 1 32.9 1.75
 7 15 1 19.53 1.43
 7 16 1 31.56 1.75
 7 17 1 65.45 2.29
 7 18 1 77.95 2.51
 7 19 1 47.91 2.12
 7 20 1 20.35 1.64
 7 21 1 45.88 2.1
 7 22 1 61.15 2.33
 7 0 2 20.91 1.15
 7 1 2 3.72 0.88
 7 2 2 70.58 1.79
 7 3 2 52.94 1.58
 7 4 2 22.98 1.21
 7 5 2 91.99 2.09
 7 6 2 379.71 4.9
 7 7 2 12.89 0.91
 7 8 2 31.81 1.47
 7 9 2 42.87 1.69
 7 10 2 258.89 4.04
 7 11 2 19.38 1.21
 7 12 2 106.09 2.59
 7 13 2 9.59 0.95
 7 14 2 10.48 0.91
 7 15 2 36.39 1.73
 7 16 2 27.6 1.69
 7 17 2 11.19 1.08
 7 18 2 20.43 1.58
 7 19 2 3.02 0.78
 7 20 2 3.43 0.82
 7 21 2 1.77 0.74
 7 0 3 6.83 0.97
 7 1 3 214.8 3.35
 7 2 3 54.86 1.68
 7 3 3 32.62 1.42
 7 4 3 44.64 1.56
 7 5 3 186.81 3.15
 7 6 3 80.57 2.05
 7 7 3 21.84 1.28
 7 8 3 68.1 1.97
 7 9 3 10.33 0.93
 7 10 3 10.89 0.93
 7 11 3 10.82 1.08
 7 12 3 27.06 1.53
 7 13 3 38.83 1.79
 7 14 3 77.39 2.4
 7 15 3 29.7 1.69
 7 16 3 44.67 2.07
 7 17 3 59.01 2.27
 7 18 3 14.38 1.17
 7 19 3 38.42 1.97
 7 20 3 23 1.68
 7 21 3 16.11 1.36
 7 0 4 4.75 0.69
 7 1 4 120.52 2.5
 7 2 4 21.71 1.3
 7 3 4 42.51 1.62
 7 4 4 103.65 2.35
 7 5 4 94.32 2.31
 7 6 4 88.27 2.23
 7 7 4 8.21 0.8
 7 8 4 16.63 1.17
 7 9 4 30 1.55
 7 10 4 21.45 1.42
 7 11 4 25.44 1.55
 7 12 4 49.5 1.96
 7 13 4 71.54 2.36
 7 14 4 21.45 1.58
 7 15 4 69.44 2.38
 7 16 4 64.43 2.29
 7 17 4 42.1 1.96
 7 18 4 29.25 1.79
 7 19 4 46.57 2.16
 7 20 4 3.52 0.8
 7 0 5 5.46 0.73
 7 1 5 40.05 1.62
 7 2 5 39.42 1.58
 7 3 5 13.17 1.12
 7 4 5 57.07 1.9
 7 5 5 59.27 1.94
 7 6 5 49.55 1.82
 7 7 5 81.62 2.29
 7 8 5 113.76 2.72
 7 9 5 8.77 0.86
 7 10 5 80.3 2.36
 7 11 5 21.84 1.55
 7 12 5 51.13 2.09
 7 13 5 8.32 0.89
 7 14 5 96.63 2.72
 7 15 5 5.72 0.86
 7 16 5 22.1 1.51
 7 17 5 7.32 0.89
 7 18 5 10.3 0.97
 7 19 5 9.96 0.95
 7 0 6 26.13 1.49
 7 1 6 111.37 2.64
 7 2 6 140.01 2.98
 7 3 6 104.67 2.61
 7 4 6 99.51 2.51
 7 5 6 11.79 0.99
 7 6 6 22.01 1.51
 7 7 6 61.08 2.14
 7 8 6 51.53 2.01
 7 9 6 16.16 1.3
 7 10 6 13.57 1.25
 7 11 6 45.79 1.96
 7 12 6 12.12 1.1
 7 13 6 24.34 1.66
 7 14 6 19.61 1.42
 7 15 6 31.69 1.86
 7 16 6 34.32 1.9
 7 17 6 26.87 1.79
 7 18 6 12.77 1.14
 7 0 7 55.51 2.07
 7 1 7 2.22 0.69
 7 2 7 131.3 3.02
 7 3 7 14.86 1.27
 7 4 7 5.68 0.8
 7 5 7 8.73 0.88
 7 6 7 5.92 0.82
 7 7 7 40.41 1.88
 7 8 7 64.43 2.23
 7 9 7 31.13 1.82
 7 10 7 67.11 2.36
 7 11 7 23.39 1.49
 7 12 7 37.26 1.99
 7 13 7 13.85 1.15
 7 14 7 52.7 2.25
 7 15 7 12.48 1.01
 7 0 8 2.16 0.74
 7 1 8 58.49 2.22
 7 2 8 129.16 3.07
 7 3 8 33.05 1.79
 7 4 8 11.51 1.08
 7 5 8 19.03 1.53
 7 6 8 8.16 0.89
 7 7 8 15.72 1.34
 7 8 8 7.09 0.97
 7 9 8 42.61 2.03
 7 10 8 3.82 0.82
 7 11 8 50.09 2.14
 7 12 8 31.17 1.82
 7 13 8 38.19 1.92
 7 14 8 4.41 0.8
 7 0 9 8.45 0.93
 7 1 9 8.08 0.91
 7 2 9 18.92 1.45
 7 3 9 13.05 1.08
 7 4 9 34.99 1.9
 7 5 9 19.44 1.27
 7 6 9 18.75 1.34
 7 7 9 6.93 0.89
 7 8 9 104.58 2.9
 7 10 9 57.61 2.23
 7 11 9 11.99 0.99
 7 1 10 56.66 2.25
 7 2 10 7.15 0.88
 7 3 10 120.22 3.07
 7 4 10 13.56 1.02
 7 6 10 17.67 1.6
 8 0 0 4.28 0.67
 8 1 0 3.11 0.63
 8 2 0 89.92 2.1
 8 4 0 4.32 0.67
 8 5 0 19.29 1.25
 8 6 0 238.93 3.78
 8 7 0 32.72 1.55
 8 8 0 10.41 0.93
 8 9 0 116.7 2.68
 8 10 0 32.42 1.6
 8 11 0 41.47 1.75
 8 12 0 18.55 1.21
 8 13 0 106.35 2.72
 8 14 0 2.33 0.73
 8 15 0 3.26 0.76
 8 16 0 65.94 2.29
 8 17 0 30.97 1.77
 8 19 0 16.89 1.23
 8 0 1 57.34 1.79
 8 1 1 56.61 1.75
 8 2 1 175.32 3.05
 8 3 1 2.25 0.63
 8 4 1 59.4 1.82
 8 5 1 121.52 2.57
 8 6 1 4.64 0.73
 8 7 1 39.76 1.62
 8 8 1 9.29 0.89
 8 9 1 111.13 2.66
 8 10 1 7.9 0.8
 8 11 1 7.23 0.82
 8 12 1 38.62 1.79
 8 13 1 47.78 1.94
 8 14 1 8.27 0.89
 8 15 1 33.78 1.79
 8 16 1 15.88 1.38
 8 17 1 33.46 1.88
 8 18 1 7.15 0.89
 8 19 1 73.87 2.48
 8 20 1 68.19 2.36
 8 1 2 5.7 0.71
 8 2 2 58.79 1.82
 8 3 2 20.76 1.3
 8 4 2 235.65 3.76
 8 5 2 5.61 0.74
 8 6 2 90.93 2.29
 8 7 2 22.74 1.47
 8 8 2 332.21 4.79
 8 9 2 3.58 0.69
 8 10 2 42.14 1.79
 8 11 2 7.65 0.84
 8 12 2 50.5 1.97
 8 13 2 4.99 0.8
 8 14 2 49.53 2.03
 8 15 2 6.74 0.86
 8 16 2 38.68 1.92
 8 17 2 9.81 0.97
 8 18 2 5.33 0.86
 8 19 2 5.49 0.86
 8 20 2 18.98 1.4
 8 0 3 150.89 2.92
 8 1 3 3.46 0.69
 8 2 3 26.8 1.43
 8 3 3 63.67 1.92
 8 4 3 76.59 2.14
 8 5 3 41.88 1.71
 8 6 3 65.27 2.01
 8 7 3 63.69 2.03
 8 8 3 38.73 1.68
 8 9 3 108.79 2.68
 8 10 3 129.25 2.96
 8 11 3 20 1.49
 8 12 3 114.97 2.89
 8 13 3 68.32 2.29
 8 14 3 29.03 1.69
 8 16 3 22.36 1.64
 8 17 3 5.9 0.88
 8 18 3 10.87 0.97
 8 19 3 3.37 0.8
 8 0 4 10.04 0.89
 8 1 4 25.66 1.4
 8 2 4 29.79 1.51
 8 3 4 83.63 2.25
 8 4 4 43.33 1.75
 8 5 4 22.01 1.36
 8 6 4 12.59 0.95
 8 7 4 74.97 2.25
 8 8 4 118.93 2.83
 8 9 4 44.77 1.86
 8 10 4 56.11 2.09
 8 11 4 99.08 2.68
 8 12 4 28.57 1.68
 8 13 4 44.99 1.99
 8 14 4 45.57 2.07
 8 15 4 70.87 2.42
 8 16 4 15.33 1.08
 8 17 4 13.03 1.14
 8 1 5 42.68 1.73
 8 2 5 33.2 1.62
 8 3 5 27.11 1.55
 8 4 5 31.17 1.6
 8 5 5 61.88 2.12
 8 6 5 84.93 2.42
 8 7 5 15.16 1.27
 8 8 5 67.47 2.27
 8 9 5 24.58 1.62
 8 10 5 90.43 2.63
 8 11 5 2.01 0.73
 8 12 5 98.21 2.81
 8 13 5 2.23 0.76
 8 14 5 10 0.97
 8 15 5 25.64 1.71
 8 16 5 18.66 1.6
 8 17 5 9.87 0.95
 8 0 6 156.14 3.3
 8 1 6 3.44 0.74
 8 2 6 15.34 1.27
 8 3 6 22.46 1.55
 8 4 6 67.41 2.23
 8 5 6 40.87 1.86
 8 6 6 29.96 1.71
 8 7 6 51.69 2.14
 8 8 6 23.72 1.69
 8 9 6 9.63 0.93
 8 11 6 53.93 2.22
 8 13 6 17.9 1.34
 8 14 6 6.01 0.88
 8 15 6 27 1.79
 8 16 6 34.21 1.88
 8 0 7 100 2.79
 8 1 7 9.14 0.91
 8 2 7 2.38 0.74
 8 3 7 20.69 1.4
 8 4 7 109.49 2.87
 8 5 7 1.84 0.74
 8 6 7 5.68 0.84
 8 7 7 65.47 2.35
 8 8 7 55.55 2.22
 8 9 7 18.9 1.43
 8 11 7 51.75 2.23
 8 12 7 59.81 2.25
 8 13 7 15.83 1.19
 8 14 7 24.06 1.69
 8 0 8 86.7 2.64
 8 1 8 81.9 2.59
 8 2 8 18.25 1.4
 8 3 8 64.45 2.38
 8 4 8 21.45 1.49
 8 5 8 25.83 1.77
 8 6 8 16.26 1.15
 8 7 8 24.41 1.71
 8 8 8 5.66 0.86
 8 9 8 7.15 0.89
 8 10 8 8.14 0.91
 8 11 8 40.99 1.99
 8 0 9 11.41 0.99
 8 1 9 10.61 0.99
 8 2 9 36.44 1.97
 8 3 9 31.3 1.84
 8 4 9 32.72 1.9
 8 6 9 80.72 2.5
 8 7 9 42.36 2.01
 8 8 9 13.72 1.17
 9 2 0 44 1.73
 9 4 0 324.81 4.79
 9 6 0 12.22 0.99
 9 7 0 13.2 1.17
 9 8 0 230.94 4.02
 9 9 0 8.03 0.86
 9 10 0 28.83 1.66
 9 11 0 45.88 1.96
 9 12 0 10.13 0.93
 9 13 0 12.4 1.01
 9 14 0 77.28 2.51
 9 15 0 68.58 2.38
 9 18 0 8.53 0.91
 9 0 1 13.61 0.99
 9 1 1 21.79 1.38
 9 2 1 48.56 1.81
 9 3 1 23.8 1.45
 9 4 1 10.74 0.95
 9 5 1 12.77 1.12
 9 6 1 36 1.68
 9 7 1 72.14 2.27
 9 8 1 26.2 1.53
 9 9 1 71.12 2.22
 9 10 1 7.91 0.88
 9 11 1 63.44 2.23
 9 12 1 6 0.84
 9 13 1 109.31 2.9
 9 14 1 24.99 1.71
 9 15 1 7.71 0.91
 9 16 1 18.79 1.55
 9 17 1 40.17 1.97
 9 18 1 2.55 0.76
 9 0 2 205.65 3.65
 9 1 2 3.33 0.67
 9 2 2 8.38 0.8
 9 3 2 5.14 0.74
 9 4 2 169.12 3.31
 9 5 2 59.85 2.01
 9 6 2 18.36 1.43
 9 7 2 20.5 1.51
 9 8 2 11.55 0.93
 9 9 2 117.15 2.87
 9 10 2 18.45 1.42
 9 11 2 29.12 1.69
 9 12 2 35.62 1.86
 9 13 2 64.86 2.35
 9 14 2 19.46 1.45
 9 15 2 19.98 1.55
 9 16 2 33.63 1.88
 9 17 2 6.74 0.88
 9 18 2 23.97 1.64
 9 0 3 36.96 1.66
 9 1 3 37.76 1.71
 9 2 3 135.04 2.94
 9 4 3 14.26 1.06
 9 5 3 39.68 1.81
 9 6 3 51.1 1.99
 9 7 3 30.28 1.68
 9 8 3 158.04 3.37
 9 9 3 18.32 1.51
 9 10 3 91.24 2.63
 9 11 3 28.75 1.73
 9 12 3 81.54 2.53
 9 13 3 7.23 0.89
 9 14 3 56.2 2.27
 9 15 3 6.57 0.88
 9 16 3 3.95 0.8
 9 17 3 8.98 0.93
 9 0 4 122.19 2.9
 9 1 4 2.9 0.73
 9 2 4 6.33 0.8
 9 3 4 28.04 1.58
 9 4 4 77.93 2.35
 9 5 4 35.31 1.75
 9 6 4 53.5 2.01
 9 7 4 24.28 1.62
 9 8 4 64.37 2.25
 9 9 4 37.69 1.82
 9 10 4 90.05 2.68
 9 12 4 65.57 2.33
 9 13 4 2.4 0.78
 9 14 4 8.21 0.93
 9 15 4 9.78 0.97
 9 16 4 8.7 0.93
 9 0 5 127.15 3.07
 9 1 5 22.46 1.56
 9 2 5 80.11 2.44
 9 3 5 73.85 2.36
 9 4 5 24.32 1.62
 9 5 5 2.1 0.73
 9 6 5 32.74 1.81
 9 7 5 67.35 2.31
 9 8 5 37.88 1.86
 9 9 5 2.96 0.78
 9 10 5 5.34 0.86
 9 11 5 38.14 1.94
 9 12 5 21.43 1.6
 9 13 5 14.3 1.19
 9 14 5 5.14 0.86
 9 15 5 17.36 1.4
 9 0 6 1.62 0.73
 9 1 6 5.25 0.84
 9 2 6 29.44 1.75
 9 3 6 55.64 2.16
 9 4 6 16.85 1.36
 9 5 6 19.89 1.56
 9 6 6 18.55 1.51
 9 7 6 29.38 1.79
 9 8 6 5.87 0.88
 9 9 6 43.67 2.03
 9 10 6 9.59 1.06
 9 11 6 38.75 1.96
 9 12 6 16.89 1.36
 9 13 6 14.39 1.04
 9 0 7 33.65 1.88
 9 1 7 11.12 1.1
 9 2 7 38.02 1.97
 9 3 7 10.11 0.97
 9 4 7 36.05 1.96
 9 5 7 36.93 1.96
 9 6 7 116.07 3.04
 9 7 7 2.48 0.76
 9 8 7 38.75 1.9
 9 9 7 21.14 1.69
 9 10 7 24.64 1.69
 9 11 7 2.59 0.78
 9 0 8 8.06 0.91
 9 1 8 4.3 0.82
 9 2 8 5.42 0.86
 9 3 8 25.05 1.73
 9 4 8 43.33 2.09
 9 5 8 12.77 1.14
 9 6 8 34.75 1.84
 9 7 8 53.91 2.22
 9 8 8 9.31 0.93
 10 0 0 501.85 6.57
 10 2 0 18.9 1.45
 10 3 0 3.2 0.74
 10 4 0 219.3 3.97
 10 5 0 19.31 1.49
 10 6 0 45.08 1.94
 10 7 0 2.44 0.74
 10 8 0 5.66 0.84
 10 9 0 34.08 1.82
 10 10 0 6.82 0.88
 10 11 0 4.51 0.82
 10 12 0 3.54 0.8
 10 14 0 13.72 1.3
 10 15 0 2.94 0.78
 10 1 1 75.36 2.33
 10 2 1 24.32 1.47
 10 3 1 35.18 1.73
 10 4 1 24.11 1.62
 10 5 1 10.69 1.02
 10 6 1 76.31 2.38
 10 7 1 21.79 1.43
 10 8 1 4 0.8
 10 9 1 18.53 1.55
 10 10 1 20.33 1.56
 10 11 1 89.48 2.68
 10 12 1 16.48 1.42
 10 13 1 17.17 1.25
 10 14 1 16.29 1.4
 10 15 1 31.23 1.82
 10 16 1 4.34 0.82
 10 0 2 95.25 2.63
 10 1 2 6.76 0.84
 10 2 2 93.33 2.64
 10 3 2 26.54 1.6
 10 4 2 34.65 1.73
 10 5 2 9.85 0.93
 10 6 2 4.97 0.82
 10 7 2 68.14 2.29
 10 8 2 13.63 1.28
 10 9 2 4.97 0.84
 10 10 2 60.13 2.31
 10 11 2 82.14 2.63
 10 12 2 4.3 0.84
 10 13 2 1.77 0.74
 10 14 2 64.06 2.35
 10 15 2 61.53 2.31
 10 0 3 13.97 1.28
 10 2 3 27.89 1.64
 10 3 3 9.4 0.91
 10 4 3 28.77 1.68
 10 5 3 15.21 1.15
 10 6 3 106.4 2.81
 10 7 3 4.47 0.8
 10 9 3 19.98 1.58
 10 10 3 42.49 2.07
 10 11 3 3.35 0.8
 10 12 3 40.5 1.96
 10 13 3 50.58 2.18
 10 14 3 4.66 0.84
 10 15 3 4.58 0.82
 10 0 4 5.9 0.84
 10 1 4 16.2 1.32
 10 2 4 27.26 1.64
 10 3 4 33.09 1.84
 10 4 4 28.77 1.71
 10 5 4 60.31 2.27
 10 6 4 7.23 0.88
 10 7 4 72.25 2.5
 10 8 4 40.87 1.99
 10 9 4 28.96 1.77
 10 10 4 42.29 2.05
 10 11 4 39.07 1.97
 10 12 4 2.85 0.78
 10 13 4 1.75 0.74
 10 14 4 36.61 1.9
 10 0 5 33.28 1.82
 10 1 5 60.26 2.25
 10 2 5 56.05 2.27
 10 3 5 2.36 0.76
 10 4 5 42.87 1.99
 10 5 5 105.71 2.94
 10 6 5 36.7 1.94
 10 7 5 4.06 0.84
 10 8 5 23.24 1.66
 10 9 5 76.81 2.57
 10 10 5 24.3 1.73
 10 11 5 4 0.82
 10 12 5 17.28 1.42
 10 1 6 17.22 1.17
 10 2 6 21.66 1.69
 10 4 6 3.67 0.8
 10 5 6 7.32 0.91
 10 6 6 5.87 0.86
 10 7 6 24.23 1.55
 10 8 6 11.62 0.99
 10 9 6 12.35 1.12
 10 10 6 28.94 1.75
 10 0 7 6.29 0.88
 10 1 7 10.76 0.97
 10 2 7 158.37 3.56
 10 3 7 6.82 0.88
 10 4 7 17.15 1.42
 10 5 7 8.58 0.91
 10 6 7 68.6 2.38
 10 7 7 21.73 1.68
 11 2 0 342.09 5.34
 11 3 0 19.38 1.43
 11 6 0 36.76 1.9
 11 7 0 109.16 2.92
 11 8 0 1.66 0.76
 11 9 0 3.18 0.78
 11 10 0 19.37 1.47
 11 11 0 103.67 2.85
 11 12 0 8.32 0.91
 11 13 0 18.08 1.45
 11 1 1 56.8 2.22
 11 2 1 2.94 0.78
 11 3 1 16.03 1.36
 11 4 1 15.06 1.17
 11 5 1 48.84 2.1
 11 6 1 3.05 0.8
 11 7 1 53.16 2.14
 11 8 1 28.14 1.77
 11 9 1 3.93 0.82
 11 10 1 14.88 1.19
 11 11 1 9.72 0.95
 11 12 1 1.6 0.74
 11 13 1 25.16 1.49
 11 0 2 14.06 1.28
 11 1 2 18.86 1.55
 11 2 2 27.15 1.79
 11 3 2 39.07 1.99
 11 4 2 24.13 1.64
 11 5 2 2.77 0.78
 11 6 2 3.61 0.8
 11 7 2 37.09 1.94
 11 8 2 17.56 1.4
 11 9 2 4.25 0.84
 11 10 2 5.98 0.88
 11 11 2 40.52 1.97
 11 12 2 11.17 1.08
 11 0 3 29.76 1.79
 11 1 3 36.31 1.86
 11 2 3 16.28 1.36
 11 4 3 51.73 2.18
 11 5 3 35.9 1.86
 11 6 3 34.08 1.88
 11 7 3 23.52 1.69
 11 8 3 28.71 1.84
 11 9 3 5.87 0.86
 11 10 3 6.93 0.88
 11 11 3 30.46 1.86
 11 0 4 13.07 1.14
 11 1 4 27.19 1.75
 11 2 4 51.8 2.16
 11 3 4 66.22 2.38
 11 4 4 13.91 1.06
 11 5 4 6.09 0.86
 11 6 4 30.82 1.75
 11 7 4 9.5 0.97
 11 8 4 2.64 0.76
 11 9 4 20.41 1.47
 11 10 4 6.31 0.86
 11 0 5 16.8 1.23
 11 1 5 27.11 1.81
 11 2 5 65.49 2.38
 11 3 5 42.4 1.96
 11 4 5 4.52 0.82
 11 5 5 5.75 0.86
 11 6 5 90.03 2.76
 11 7 5 22.77 1.62
 11 0 6 34.02 1.92
 11 1 6 8.94 0.93
 11 2 6 1.71 0.8
 11 3 6 51.95 2.14
 11 4 6 13.03 1.12
 12 0 0 16.7 1.25
 12 1 0 25.88 1.75
 12 2 0 10 1.06
 12 3 0 46.16 2.09
 12 4 0 4.34 0.82
 12 5 0 32.76 1.82
 12 6 0 38.06 1.92
 12 7 0 14.99 1.06
 12 9 0 66.79 2.38
 12 0 1 23 1.64
 12 1 1 9.53 0.95
 12 2 1 7.09 0.89
 12 3 1 41.75 2.05
 12 4 1 16.48 1.28
 12 5 1 64.21 2.38
 12 7 1 42.36 2.05
 12 8 1 18.75 1.58
 12 0 2 1.84 0.74
 12 1 2 9.55 0.95
 12 2 2 88.36 2.76
 12 3 2 2.83 0.78
 12 4 2 16.11 1.4
 12 5 2 14.41 1.15
 12 6 2 28.12 1.81
 12 7 2 9.11 0.93
 12 8 2 9.89 1.06
 12 1 3 33.54 1.81
 12 3 3 38.64 1.96
 12 4 3 3.44 0.78
 12 5 3 13.09 1.28
 12 6 3 1.66 0.74
 12 0 4 26.41 1.71
 12 1 4 81.95 2.59
 12 2 4 16.87 1.55
 12 3 4 31.88 1.84

_iucr_refine_fcf_details
;
data_lala_23K
_computing_structure_refinement   'olex2.refine 1.5-alpha (Bourhis et al., 2015)'
_shelx_refln_list_code            4
loop_
  _space_group_symop_id
  _space_group_symop_operation_xyz
  1  x,y,z
  2  x+1/2,-y+1/2,-z
  3  -x,y+1/2,-z+1/2
  4  -x+1/2,-y,z+1/2

_space_group_crystal_system       orthorhombic
_space_group_IT_number            19
_space_group_name_H-M_alt         'P 21 21 21'
_space_group_name_Hall            ' P 2ac 2ab'
_symmetry_space_group_name_H-M    'P 21 21 21'
_symmetry_space_group_name_Hall   ' P 2ac 2ab'
_symmetry_Int_Tables_number       19
_cell_length_a                    5.9279(10)
_cell_length_b                    12.2597(17)
_cell_length_c                    5.7939(9)
_cell_angle_alpha                 90
_cell_angle_beta                  90
_cell_angle_gamma                 90
_cell_volume                      421.07(11)
loop_
  _refln_index_h
  _refln_index_k
  _refln_index_l
  _refln_F_squared_calc
  _refln_F_squared_meas
  _refln_F_squared_sigma
  _refln_F_squared_weight
  _refln_observed_status
0 0 2 2900.550 2875.540 33.698 0.005 o
0 0 4 217.774 212.117 3.948 0.808 o
0 0 8 25.802 24.764 1.532 21.416 o
0 0 10 5.178 4.870 1.238 45.936 o
0 1 1 733.734 732.859 7.413 0.080 o
0 1 2 521.916 539.382 6.630 0.149 o
0 1 3 87.749 84.970 1.766 4.797 o
0 1 4 38.203 40.283 1.222 18.580 o
0 1 5 250.570 238.852 4.570 0.616 o
0 1 6 93.956 94.837 2.482 3.571 o
0 1 7 62.433 59.462 2.077 7.020 o
0 1 8 3.156 3.631 0.961 76.907 o
0 1 9 6.755 8.623 1.177 49.121 o
0 1 12 28.938 27.329 2.277 11.189 o
0 2 0 180.830 185.926 1.777 1.291 o
0 2 1 127.374 120.934 1.233 2.740 o
0 2 2 173.305 183.682 2.099 1.340 o
0 2 3 158.652 159.601 2.959 1.481 o
0 2 4 89.496 94.143 2.077 4.142 o
0 2 5 138.052 138.868 2.987 1.841 o
0 2 6 15.526 16.385 1.033 49.417 o
0 2 7 555.099 547.499 9.845 0.124 o
0 2 8 9.682 8.812 1.160 48.637 o
0 2 9 47.870 46.919 2.221 8.487 o
0 2 10 21.563 20.950 1.760 18.920 o
0 2 11 2.049 2.732 1.249 46.082 o
0 2 12 19.624 20.439 1.988 15.790 o
0 3 1 688.738 716.829 6.474 0.089 o
0 3 2 61.135 56.847 0.805 11.474 o
0 3 3 200.754 207.825 2.482 1.010 o
0 3 4 7.507 8.096 0.455 239.891 o
0 3 5 50.671 49.784 1.549 11.255 o
0 3 6 0.902 1.510 0.650 170.539 o
0 3 8 16.849 15.902 1.366 31.447 o
0 3 9 62.187 64.087 2.565 5.632 o
0 3 10 49.850 49.539 2.438 7.328 o
0 3 11 7.657 6.874 1.499 30.975 o
0 3 12 120.967 117.580 4.003 1.863 o
0 4 0 5394.860 5245.990 44.964 0.002 o
0 4 1 94.705 99.412 1.077 4.559 o
0 4 2 176.188 173.210 1.810 1.392 o
0 4 3 723.036 747.623 7.868 0.079 o
0 4 4 225.502 232.134 2.876 0.799 o
0 4 5 386.513 393.606 4.642 0.277 o
0 4 6 17.176 16.169 1.094 43.920 o
0 4 7 12.242 11.921 1.116 48.883 o
0 4 9 21.545 22.477 1.644 20.905 o
0 4 10 28.069 28.673 1.966 14.092 o
0 5 2 557.368 573.430 5.386 0.136 o
0 5 3 77.972 82.260 1.210 6.307 o
0 5 5 188.208 179.796 2.460 1.194 o
0 5 6 84.875 87.258 1.594 5.100 o
0 5 7 24.914 24.359 1.449 23.552 o
0 5 10 32.999 33.087 2.077 11.966 o
0 5 12 9.473 9.895 1.738 22.830 o
0 6 0 90.212 90.739 1.055 5.139 o
0 6 1 475.418 480.508 4.631 0.189 o
0 6 2 90.694 97.841 1.177 4.781 o
0 6 3 268.958 275.515 2.876 0.579 o
0 6 4 71.440 71.755 1.238 7.492 o
0 6 6 12.301 11.310 0.661 108.918 o
0 6 7 43.935 43.676 1.233 15.826 o
0 6 8 10.245 10.389 0.827 84.815 o
0 6 10 42.670 42.105 2.360 8.576 o
0 6 11 9.050 7.807 1.549 28.713 o
0 6 12 56.521 56.436 2.793 5.622 o
0 7 1 36.587 37.357 0.622 28.472 o
0 7 2 5.349 5.480 0.339 449.546 o
0 7 3 22.547 22.665 0.577 63.286 o
0 7 4 31.207 29.561 0.788 34.230 o
0 7 5 7.699 6.702 0.539 192.221 o
0 7 6 146.350 143.699 2.265 1.869 o
0 7 7 47.600 47.191 1.294 13.782 o
0 7 8 58.982 60.334 1.582 8.920 o
0 7 9 48.189 47.063 1.538 12.069 o
0 7 10 54.877 54.986 2.637 6.160 o
0 7 11 2.588 3.132 1.366 38.503 o
0 7 12 69.993 65.586 3.082 4.267 o
0 8 0 45.294 45.875 0.722 19.015 o
0 8 1 44.620 44.875 0.733 19.507 o
0 8 2 110.820 113.021 1.416 3.326 o
0 8 3 62.394 62.366 1.005 10.068 o
0 8 4 66.612 65.231 1.088 8.900 o
0 8 5 147.141 146.914 2.204 1.846 o
0 8 6 30.904 30.344 0.994 29.105 o
0 8 7 1.644 1.977 0.433 375.691 o
0 8 8 89.781 88.518 1.954 4.386 o
0 8 9 81.158 80.589 1.966 5.070 o
0 8 10 59.940 60.900 1.821 7.967 o
0 8 11 8.096 8.490 1.549 28.838 o
0 9 1 33.444 32.454 0.672 33.010 o
0 9 2 22.433 23.965 0.600 60.535 o
0 9 3 150.217 144.393 1.799 1.898 o
0 9 4 7.052 7.279 0.466 242.536 o
0 9 5 77.283 70.162 1.438 6.593 o
0 9 6 12.630 14.514 0.788 80.301 o
0 9 7 4.389 4.992 0.527 231.997 o
0 9 8 11.126 12.410 0.877 73.677 o
0 9 9 17.257 16.669 1.088 43.928 o
0 9 10 6.824 6.813 0.661 141.670 o
0 9 11 7.861 8.096 0.777 102.669 o
0 10 0 0.783 0.805 0.350 586.136 o
0 10 1 134.080 138.913 1.716 2.249 o
0 10 2 47.158 46.797 0.866 16.977 o
0 10 3 39.722 40.078 0.838 22.453 o
0 10 4 88.020 91.389 1.394 4.971 o
0 10 5 8.860 8.046 0.561 167.575 o
0 10 6 15.662 15.786 0.827 67.227 o
0 10 7 10.133 9.328 0.816 88.117 o
0 10 8 5.578 6.619 0.705 130.764 o
0 10 9 13.885 14.009 1.033 52.616 o
0 10 10 1.154 1.882 0.527 256.999 o
0 10 11 0.776 1.594 0.539 247.762 o
0 11 1 68.380 67.496 1.116 8.410 o
0 11 2 87.926 84.754 1.272 5.323 o
0 11 3 70.315 71.189 1.199 7.738 o
0 11 4 101.492 99.112 1.532 3.923 o
0 11 5 22.358 20.988 0.788 52.305 o
0 11 6 120.767 118.574 1.921 2.724 o
0 11 7 30.072 31.760 1.199 24.704 o
0 11 8 41.488 40.561 1.416 15.404 o
0 11 9 1.709 2.265 0.527 254.647 o
0 11 10 17.806 16.574 1.160 39.584 o
0 11 11 9.235 8.445 0.850 85.128 o
0 12 0 238.691 235.482 2.687 0.747 o
0 12 1 78.263 77.235 1.238 6.478 o
0 12 2 28.566 28.579 0.755 38.775 o
0 12 3 119.083 120.301 1.716 2.826 o
0 12 4 39.222 39.456 0.972 21.306 o
0 12 5 1.325 1.510 0.333 634.019 o
0 12 6 6.544 6.380 0.566 186.572 o
0 12 7 5.271 5.902 0.650 153.942 o
0 12 8 40.364 40.694 1.460 15.285 o
0 12 9 36.765 35.297 1.416 17.671 o
0 12 10 12.195 13.576 0.938 63.729 o
0 12 11 32.716 30.511 1.416 19.936 o
0 13 1 20.048 19.056 0.705 64.915 o
0 13 2 22.098 21.744 0.705 57.228 o
0 13 3 147.568 147.202 2.027 1.874 o
0 13 4 10.954 11.621 0.661 113.920 o
0 13 5 79.098 80.100 1.521 5.869 o
0 13 6 4.424 4.831 0.489 266.101 o
0 13 7 13.339 11.777 0.805 79.562 o
0 13 8 32.641 32.527 1.366 20.359 o
0 13 9 29.236 29.489 1.355 22.603 o
0 13 10 11.816 12.688 1.066 52.816 o
0 14 0 57.114 59.245 1.138 10.958 o
0 14 1 38.694 38.351 0.949 22.166 o
0 14 2 22.802 21.538 0.766 52.338 o
0 14 3 29.287 28.146 0.866 34.838 o
0 14 4 144.534 144.082 2.110 1.928 o
0 14 5 2.850 3.559 0.411 393.095 o
0 14 6 11.199 11.827 0.744 95.138 o
0 14 7 1.093 1.499 0.394 458.175 o
0 14 8 11.519 12.688 0.994 59.620 o
0 14 10 46.382 44.076 1.644 12.049 o
0 15 1 90.002 92.033 1.571 4.662 o
0 15 2 182.288 183.433 2.421 1.230 o
0 15 3 90.126 91.516 1.605 4.638 o
0 15 4 47.389 45.791 1.199 14.695 o
0 15 5 13.357 14.259 0.794 78.059 o
0 15 9 46.719 47.852 1.666 11.491 o
0 15 10 5.200 5.925 0.650 154.169 o
0 16 0 23.732 25.536 0.866 42.802 o
0 16 2 4.181 4.498 0.411 365.240 o
0 16 3 154.416 156.592 2.288 1.666 o
0 16 4 94.688 95.775 1.760 4.149 o
0 16 5 13.634 13.431 0.805 76.912 o
0 16 6 44.265 42.021 1.294 15.460 o
0 16 7 85.337 82.644 1.832 4.931 o
0 16 8 0.661 1.011 0.405 437.530 o
0 16 9 13.786 14.631 1.105 47.111 o
0 17 1 0.762 1.149 0.350 584.866 o
0 17 2 64.233 61.777 1.394 8.691 o
0 17 3 48.303 47.757 1.249 13.817 o
0 17 4 5.249 5.769 0.466 273.704 o
0 17 5 74.596 77.918 1.677 6.076 o
0 17 6 29.417 29.456 1.116 27.606 o
0 17 7 0.505 1.066 0.405 438.061 o
0 17 8 7.315 6.646 0.561 183.391 o
0 17 9 15.682 15.708 0.994 52.460 o
0 18 0 227.917 230.290 3.009 0.786 o
0 18 1 62.624 60.578 1.388 9.025 o
0 18 2 19.414 20.639 0.922 49.096 o
0 18 3 28.137 27.318 1.005 32.260 o
0 18 4 10.494 9.750 0.755 98.143 o
0 18 5 2.479 2.360 0.422 385.596 o
0 18 6 6.960 7.890 0.694 127.850 o
0 18 7 1.402 2.338 0.444 357.988 o
0 18 9 8.882 8.684 0.650 132.598 o
0 19 1 15.919 16.347 0.900 59.352 o
0 19 2 118.222 121.272 2.121 2.673 o
0 19 3 3.217 2.532 0.411 395.122 o
0 19 4 3.921 3.404 0.444 329.251 o
0 19 5 14.236 13.781 0.911 63.213 o
0 19 6 44.526 44.731 1.405 14.102 o
0 19 7 5.360 6.935 0.561 195.721 o
0 19 8 10.574 9.339 0.777 94.138 o
0 20 1 28.208 27.762 1.055 30.617 o
0 20 2 0.795 0.994 0.411 425.305 o
0 20 3 44.235 44.959 1.355 14.541 o
0 20 4 1.722 1.849 0.411 416.107 o
0 20 6 1.494 1.860 0.433 377.147 o
0 20 7 138.610 136.803 2.482 1.988 o
0 20 8 6.047 6.235 0.539 207.007 o
0 21 1 2.162 2.721 0.422 387.023 o
0 21 2 46.411 46.474 1.377 13.603 o
0 21 3 0.833 0.877 0.394 461.838 o
0 21 5 21.824 19.861 1.055 39.647 o
0 21 6 23.071 21.549 1.094 36.081 o
0 21 7 0.488 0.922 0.405 438.391 o
0 22 0 133.918 137.125 2.388 2.090 o
0 22 2 37.773 37.241 1.305 18.332 o
0 22 3 0.666 1.166 0.411 425.500 o
0 22 4 3.704 4.403 0.494 268.995 o
0 22 5 5.204 5.564 0.527 223.720 o
0 22 6 10.933 10.700 0.788 89.426 o
0 23 1 1.873 1.749 0.422 394.248 o
0 23 2 17.203 18.229 1.044 45.824 o
0 23 3 27.475 28.484 1.177 27.678 o
0 23 5 13.954 12.665 0.972 58.581 o
0 23 6 17.846 17.207 1.005 48.102 o
0 24 2 1.970 2.521 0.466 321.501 o
0 24 3 12.081 12.865 0.922 66.265 o
0 24 4 27.056 26.885 1.149 29.189 o
0 25 1 2.446 3.021 0.566 217.918 o
0 25 2 21.641 22.726 1.272 30.322 o
0 25 3 5.931 5.036 0.577 188.402 o
0 25 4 2.289 2.937 0.516 261.398 o
0 26 0 5.218 6.524 0.622 165.296 o
0 26 1 20.035 20.017 1.249 32.911 o
0 26 2 1.751 2.587 0.505 276.134 o
1 0 1 69.243 77.702 0.838 8.089 o
1 0 2 3276.360 3142.520 36.569 0.004 o
1 0 3 30.113 32.427 0.933 30.344 o
1 0 4 344.289 332.362 5.902 0.331 o
1 0 5 281.165 288.020 5.364 0.463 o
1 0 7 251.459 250.984 5.214 0.568 o
1 0 8 9.644 10.578 1.222 43.838 o
1 0 10 2.614 3.526 1.188 50.725 o
1 0 12 16.787 18.112 1.954 16.851 o
1 1 0 251.599 254.477 2.388 0.677 o
1 1 1 127.726 135.159 1.377 2.512 o
1 1 2 74.259 72.521 0.949 7.602 o
1 1 3 292.164 306.193 5.292 0.431 o
1 1 4 248.216 263.194 4.786 0.580 o
1 1 5 125.907 123.910 2.737 2.234 o
1 1 7 26.872 27.185 1.466 21.892 o
1 1 8 33.957 35.786 1.810 13.981 o
1 1 9 3.081 2.265 1.011 69.944 o
1 1 10 24.446 26.064 1.905 15.660 o
1 1 11 14.030 12.160 1.632 24.511 o
1 1 12 77.103 76.986 3.226 3.647 o
1 2 0 5387.450 5551.950 58.790 0.001 o
1 2 1 101.247 105.359 1.116 4.029 o
1 2 2 561.615 579.293 6.191 0.132 o
1 2 3 228.225 227.470 2.665 0.808 o
1 2 4 29.460 29.095 1.055 29.178 o
1 2 5 482.390 469.376 8.218 0.168 o
1 2 6 7.714 7.640 0.838 90.750 o
1 2 7 59.731 62.121 2.138 6.966 o
1 2 8 19.160 20.111 1.460 26.445 o
1 2 9 51.152 52.205 2.293 7.639 o
1 2 11 35.062 34.264 2.288 10.108 o
1 2 12 9.979 8.406 1.760 22.317 o
1 3 0 59.184 59.806 0.694 11.901 o
1 3 1 1082.390 1100.550 9.789 0.037 o
1 3 2 196.319 196.420 2.049 1.107 o
1 3 3 89.676 92.838 1.294 4.909 o
1 3 4 23.167 23.698 0.650 56.213 o
1 3 5 187.947 178.452 3.681 1.068 o
1 3 6 12.685 12.571 1.005 57.217 o
1 3 7 80.848 82.460 2.521 4.289 o
1 3 8 31.454 32.527 1.727 15.763 o
1 3 10 17.855 20.422 1.738 20.221 o
1 3 11 24.409 23.709 1.977 14.957 o
1 4 0 1719.930 1698.430 14.942 0.015 o
1 4 1 157.492 158.907 1.655 1.709 o
1 4 2 1064.290 1077.000 9.750 0.038 o
1 4 3 89.184 96.819 1.355 4.763 o
1 4 4 113.425 111.006 1.582 3.197 o
1 4 5 112.172 109.434 1.705 3.208 o
1 4 6 16.498 16.191 1.094 44.555 o
1 4 7 146.463 143.060 3.559 1.566 o
1 4 8 33.264 33.198 1.777 14.727 o
1 4 9 3.805 3.298 1.149 53.877 o
1 4 10 22.064 21.994 1.838 17.430 o
1 4 11 12.075 12.055 1.644 24.659 o
1 4 12 28.980 29.428 2.243 11.337 o
1 5 0 325.170 342.406 3.332 0.391 o
1 5 1 440.414 443.101 4.281 0.221 o
1 5 2 18.774 18.828 0.411 99.199 o
1 5 3 23.688 23.315 0.527 62.395 o
1 5 4 82.909 84.704 1.355 5.607 o
1 5 5 8.563 8.662 0.539 177.533 o
1 5 6 12.524 13.454 0.672 101.465 o
1 5 7 29.625 30.955 1.055 28.390 o
1 5 8 104.358 103.560 3.154 2.665 o
1 5 9 28.264 28.962 1.860 15.229 o
1 5 10 33.289 33.115 2.121 11.568 o
1 5 11 5.354 6.224 1.466 32.876 o
1 5 12 72.760 69.512 3.154 3.996 o
1 6 0 64.008 62.605 0.805 10.255 o
1 6 1 20.493 22.149 0.444 80.367 o
1 6 2 218.086 222.122 2.338 0.884 o
1 6 3 138.307 139.779 1.655 2.172 o
1 6 4 132.902 131.944 1.893 2.298 o
1 6 5 230.383 232.545 3.048 0.769 o
1 6 6 21.938 22.160 0.827 49.767 o
1 6 7 63.853 62.493 1.488 8.418 o
1 6 8 16.268 15.242 0.933 56.825 o
1 6 9 9.184 10.183 1.310 38.857 o
1 6 10 41.229 42.144 2.338 8.817 o
1 6 11 2.963 4.003 1.366 38.396 o
1 7 0 20.402 19.478 0.444 86.319 o
1 7 1 345.940 343.395 3.454 0.360 o
1 7 2 165.451 163.988 1.838 1.554 o
1 7 3 5.228 5.242 0.383 380.150 o
1 7 4 86.710 84.731 1.238 5.446 o
1 7 5 77.033 73.843 1.405 6.499 o
1 7 6 7.245 7.879 0.633 147.908 o
1 7 7 10.761 9.628 0.777 93.265 o
1 7 8 95.938 92.527 1.988 3.972 o
1 7 9 14.548 16.080 1.022 51.520 o
1 7 10 33.567 32.116 2.132 11.510 o
1 7 11 7.826 8.729 1.605 26.982 o
1 7 12 24.552 23.160 2.110 13.459 o
1 8 0 400.149 406.921 4.053 0.265 o
1 8 1 234.065 237.386 2.510 0.769 o
1 8 2 10.325 10.372 0.433 202.443 o
1 8 3 258.279 260.751 2.843 0.631 o
1 8 4 45.829 45.719 0.900 17.488 o
1 8 5 71.967 70.173 1.394 7.216 o
1 8 6 10.174 9.200 0.694 113.763 o
1 8 7 57.763 57.041 1.466 9.776 o
1 8 8 3.559 3.287 0.494 274.620 o
1 8 9 8.116 8.456 0.755 106.700 o
1 8 10 24.686 24.848 1.272 27.944 o
1 8 11 16.964 15.830 1.199 38.568 o
1 9 0 3.276 3.298 0.350 518.435 o
1 9 1 236.174 235.060 2.565 0.763 o
1 9 2 60.641 62.543 0.994 10.415 o
1 9 3 28.888 29.362 0.711 39.231 o
1 9 4 2.436 2.204 0.394 440.227 o
1 9 5 93.792 91.144 1.477 4.556 o
1 9 6 11.691 11.210 0.777 88.702 o
1 9 7 69.656 68.213 1.632 7.052 o
1 9 8 50.959 51.894 1.538 11.065 o
1 9 9 20.432 20.089 1.127 37.557 o
1 9 10 7.484 7.474 0.816 95.772 o
1 9 11 25.643 23.831 1.321 26.382 o
1 10 0 41.167 43.571 0.816 20.900 o
1 10 1 137.153 132.783 1.694 2.255 o
1 10 2 59.126 60.189 1.011 10.903 o
1 10 3 79.634 80.650 1.249 6.178 o
1 10 4 22.005 22.987 0.711 55.788 o
1 10 5 9.814 9.639 0.589 145.379 o
1 10 6 2.540 2.460 0.444 348.739 o
1 10 7 18.279 18.995 0.972 48.592 o
1 10 8 41.952 40.239 1.394 15.523 o
1 10 9 32.215 29.961 1.333 21.610 o
1 10 10 61.415 56.702 1.821 8.037 o
1 10 11 19.856 18.973 1.238 33.787 o
1 11 0 99.501 98.041 1.377 4.145 o
1 11 1 17.094 17.352 0.566 91.662 o
1 11 2 119.918 119.368 1.610 2.855 o
1 11 3 16.073 16.863 0.600 92.360 o
1 11 4 64.516 63.104 1.188 9.133 o
1 11 5 35.472 36.291 0.961 24.518 o
1 11 6 10.950 9.956 0.683 112.055 o
1 11 7 21.880 22.116 0.922 44.791 o
1 11 8 95.576 96.769 2.149 3.761 o
1 11 9 45.679 46.702 1.594 12.259 o
1 11 10 15.450 16.513 1.160 41.486 o
1 11 11 2.891 3.648 0.600 192.669 o
1 12 0 26.071 27.235 0.711 44.761 o
1 12 2 118.271 116.797 1.644 2.927 o
1 12 3 33.165 32.682 0.850 29.522 o
1 12 4 145.603 142.583 2.016 1.943 o
1 12 5 25.155 25.386 0.866 41.083 o
1 12 6 30.082 29.356 0.972 30.686 o
1 12 7 2.565 1.932 0.466 319.465 o
1 12 8 13.145 11.921 0.983 59.112 o
1 12 9 8.673 9.056 0.838 87.557 o
1 12 10 48.696 46.163 1.666 11.287 o
1 12 11 0.806 1.632 0.539 247.667 o
1 13 0 59.433 58.007 1.094 10.777 o
1 13 1 129.722 129.162 1.788 2.426 o
1 13 2 113.909 111.544 1.655 3.139 o
1 13 3 35.052 34.215 0.922 26.130 o
1 13 4 25.802 27.463 0.866 39.044 o
1 13 5 45.378 45.275 1.166 15.649 o
1 13 6 7.660 7.629 0.611 155.206 o
1 13 7 41.449 42.877 1.260 16.522 o
1 13 8 29.101 28.684 1.283 24.301 o
1 13 9 17.187 16.308 1.149 40.765 o
1 14 1 30.461 29.934 0.838 33.513 o
1 14 2 55.739 55.370 1.149 11.613 o
1 14 3 116.026 116.236 1.799 2.938 o
1 14 4 42.173 39.889 1.077 18.635 o
1 14 5 39.991 40.694 1.138 18.723 o
1 14 6 28.390 28.362 1.011 31.456 o
1 14 7 26.304 24.931 1.066 32.926 o
1 14 8 1.903 1.222 0.516 266.700 o
1 14 9 7.662 8.023 0.838 90.491 o
1 14 10 8.114 6.657 0.672 132.991 o
1 15 0 84.867 87.335 1.499 5.205 o
1 15 1 88.335 88.674 1.532 4.900 o
1 15 2 31.403 32.021 0.933 29.456 o
1 15 3 33.834 33.892 0.994 25.774 o
1 15 4 2.144 3.021 0.405 416.242 o
1 15 5 29.551 30.211 1.033 29.247 o
1 15 6 12.096 11.144 0.827 79.938 o
1 15 7 35.084 32.727 1.188 22.061 o
1 15 8 44.424 46.880 1.394 13.935 o
1 15 9 21.967 22.532 1.249 30.909 o
1 15 10 11.284 10.672 0.888 73.483 o
1 16 0 24.619 24.753 0.861 42.398 o
1 16 1 61.617 62.521 1.305 9.290 o
1 16 2 29.180 27.957 0.949 32.652 o
1 16 3 9.944 9.412 0.622 134.391 o
1 16 4 22.376 23.865 0.922 43.059 o
1 16 5 74.830 79.573 1.655 6.027 o
1 16 6 2.988 3.021 0.433 358.233 o
1 16 7 23.365 26.180 1.088 34.089 o
1 16 8 5.348 5.658 0.527 222.222 o
1 16 9 44.075 43.498 1.605 12.845 o
1 17 0 30.591 29.889 0.972 30.056 o
1 17 1 25.130 25.736 0.911 39.150 o
1 17 2 77.292 76.636 1.538 6.135 o
1 17 3 26.468 25.331 0.949 36.501 o
1 17 4 27.417 28.434 1.033 31.596 o
1 17 5 11.188 11.599 0.805 84.902 o
1 17 6 21.212 21.788 1.011 41.370 o
1 17 7 19.572 20.761 1.022 43.137 o
1 17 8 29.818 27.174 1.199 26.137 o
1 17 9 18.270 18.540 1.066 43.267 o
1 18 0 0.755 0.938 0.383 489.065 o
1 18 1 23.330 24.070 0.938 41.034 o
1 18 2 110.104 111.417 1.954 3.117 o
1 18 3 27.896 26.841 1.011 32.505 o
1 18 4 57.005 59.295 1.477 9.674 o
1 18 5 7.780 7.041 0.650 141.206 o
1 18 6 14.302 14.031 0.911 62.899 o
1 18 7 45.533 43.593 1.405 13.989 o
1 18 8 4.649 5.530 0.527 228.097 o
1 18 9 12.102 11.727 0.911 68.424 o
1 19 0 33.831 34.131 1.116 23.541 o
1 19 1 14.812 15.486 0.838 68.112 o
1 19 2 40.072 41.710 1.222 17.598 o
1 19 3 27.790 27.546 1.066 30.714 o
1 19 4 40.202 41.305 1.260 17.220 o
1 19 5 18.246 18.912 0.983 47.986 o
1 19 6 11.088 11.954 0.866 75.667 o
1 19 7 6.925 6.835 0.622 156.458 o
1 19 8 1.882 2.293 0.444 354.815 o
1 20 0 42.383 40.750 1.260 16.566 o
1 20 1 6.680 5.891 0.489 237.804 o
1 20 2 10.359 9.822 0.711 108.001 o
1 20 3 7.908 7.857 0.672 131.431 o
1 20 4 9.220 9.356 0.805 92.184 o
1 20 5 66.158 65.459 1.666 7.479 o
1 20 6 34.412 31.988 1.260 21.395 o
1 20 7 14.704 15.641 1.005 52.868 o
1 21 0 1.176 1.449 0.433 380.308 o
1 21 1 1.586 2.088 0.411 416.253 o
1 21 2 22.616 23.148 1.033 38.245 o
1 21 3 24.579 23.876 1.066 34.822 o
1 21 4 11.607 10.927 0.794 86.503 o
1 21 5 25.122 25.414 1.127 31.724 o
1 21 6 9.410 9.523 0.788 94.737 o
1 21 7 9.519 9.428 0.672 121.687 o
1 22 0 4.000 4.042 0.478 285.139 o
1 22 1 34.492 35.186 1.222 21.239 o
1 22 2 39.189 37.024 1.294 17.984 o
1 22 3 6.980 7.279 0.622 155.082 o
1 22 4 21.265 22.032 1.055 39.136 o
1 22 5 1.548 1.749 0.433 377.154 o
1 22 6 10.380 8.740 0.766 97.646 o
1 23 0 6.175 7.091 0.611 164.461 o
1 23 1 9.751 10.783 0.900 74.484 o
1 23 2 44.053 43.931 1.438 14.067 o
1 23 3 2.937 2.782 0.466 313.355 o
1 23 4 15.107 15.264 0.972 55.252 o
1 23 5 3.667 4.631 0.505 257.737 o
1 23 6 11.860 12.182 0.900 69.775 o
1 24 0 9.691 9.906 0.794 92.507 o
1 24 1 22.218 21.188 1.088 37.209 o
1 24 2 10.004 10.783 0.805 88.687 o
1 24 3 8.159 8.229 0.650 136.883 o
1 24 4 2.296 2.160 0.433 369.640 o
1 24 5 18.333 17.651 1.011 46.917 o
1 25 1 9.155 9.606 0.827 87.984 o
1 25 3 16.466 18.123 1.177 39.190 o
1 26 0 6.640 7.413 0.639 149.639 o
1 26 1 0.798 2.027 0.489 299.937 o
1 26 2 3.697 4.548 0.566 209.040 o
2 0 0 41.753 42.421 0.539 23.442 o
2 0 1 1.643 1.655 0.167 2256.130 o
2 0 2 4.521 4.248 0.228 871.726 o
2 0 3 142.054 133.671 1.549 2.181 o
2 0 4 52.886 57.468 1.549 10.190 o
2 0 5 149.485 146.264 3.143 1.614 o
2 0 6 75.365 77.413 2.232 5.108 o
2 0 7 7.084 7.507 0.994 67.534 o
2 0 8 55.585 54.759 2.221 7.390 o
2 0 9 73.596 76.658 2.804 4.332 o
2 0 10 50.761 50.322 2.482 7.073 o
2 0 11 12.385 12.749 1.694 23.204 o
2 0 12 48.865 47.263 2.676 6.653 o
2 1 0 31.764 31.483 0.444 40.441 o
2 1 1 80.688 78.923 0.888 6.595 o
2 1 2 304.269 312.256 3.093 0.455 o
2 1 3 139.645 142.066 1.605 2.135 o
2 1 4 103.201 108.191 1.560 3.638 o
2 1 5 37.121 34.381 1.321 18.901 o
2 1 6 92.447 95.126 2.532 3.575 o
2 1 7 45.836 44.481 1.838 10.882 o
2 1 8 59.397 59.556 2.326 6.563 o
2 1 9 16.206 17.701 1.521 26.224 o
2 1 10 68.949 68.035 2.865 4.611 o
2 1 11 11.141 10.039 1.610 26.038 o
2 1 12 22.359 20.833 2.121 13.756 o
2 2 0 1720.460 1698.410 14.964 0.015 o
2 2 1 280.258 280.668 2.760 0.547 o
2 2 2 1089.360 1097.220 9.928 0.036 o
2 2 3 384.790 388.259 3.848 0.288 o
2 2 4 132.916 132.749 1.849 2.302 o
2 2 5 163.442 163.310 2.277 1.521 o
2 2 6 2.301 2.338 0.722 136.545 o
2 2 7 12.636 12.715 1.138 46.650 o
2 2 8 25.047 23.876 1.605 20.430 o
2 2 9 111.492 110.756 3.476 2.280 o
2 2 10 2.070 2.893 1.199 49.963 o
2 2 11 3.836 3.348 1.388 37.111 o
2 2 12 6.879 6.297 1.644 26.083 o
2 3 0 802.278 795.791 7.257 0.068 o
2 3 1 527.586 542.735 5.108 0.152 o
2 3 2 111.208 108.357 1.272 3.460 o
2 3 3 447.959 453.606 4.486 0.212 o
2 3 4 133.799 134.993 1.871 2.255 o
2 3 5 31.734 32.021 0.861 30.802 o
2 3 6 1.991 2.288 0.577 212.417 o
2 3 7 14.882 14.664 1.210 39.881 o
2 3 8 28.028 29.395 1.694 17.403 o
2 3 9 4.931 5.430 1.116 56.190 o
2 3 10 6.652 6.646 1.355 37.942 o
2 3 11 6.097 7.352 1.477 32.153 o
2 3 12 40.708 43.148 2.565 7.762 o
2 4 0 36.903 36.269 0.539 29.815 o
2 4 1 148.027 159.651 1.688 1.833 o
2 4 2 92.136 90.117 1.105 4.991 o
2 4 3 66.538 66.636 0.949 9.118 o
2 4 4 14.003 13.165 0.577 114.378 o
2 4 5 151.177 150.173 2.149 1.776 o
2 4 6 22.557 22.915 0.827 48.205 o
2 4 7 135.295 131.972 2.710 2.014 o
2 4 8 16.878 16.130 1.394 30.369 o
2 4 9 49.206 49.389 2.326 7.807 o
2 4 10 4.720 4.747 1.272 43.761 o
2 4 12 11.547 11.322 1.799 20.987 o
2 5 0 93.294 92.199 1.094 4.855 o
2 5 1 415.399 431.780 4.198 0.242 o
2 5 2 8.035 8.490 0.350 316.230 o
2 5 3 254.439 252.400 2.699 0.661 o
2 5 4 63.901 60.561 0.994 9.987 o
2 5 5 66.663 64.531 1.260 8.520 o
2 5 6 100.027 99.806 1.777 3.805 o
2 5 7 72.479 71.888 1.594 6.679 o
2 5 8 58.040 57.241 1.538 9.441 o
2 5 9 10.759 11.610 1.405 33.369 o
2 5 10 47.453 47.263 2.438 7.608 o
2 6 0 2130.020 2105.550 18.695 0.010 o
2 6 1 23.131 23.182 0.489 66.425 o
2 6 2 289.973 295.543 3.048 0.501 o
2 6 3 88.724 92.116 1.238 5.043 o
2 6 4 111.917 109.529 1.466 3.327 o
2 6 5 12.356 12.637 0.639 110.634 o
2 6 7 30.372 29.695 1.077 27.793 o
2 6 8 50.538 47.646 1.460 11.991 o
2 6 9 52.066 50.489 1.594 10.708 o
2 6 10 16.863 17.185 1.688 21.871 o
2 6 11 14.139 13.815 1.694 22.736 o
2 6 12 30.952 29.706 2.243 11.105 o
2 7 0 292.818 297.187 3.037 0.493 o
2 7 1 96.799 99.123 1.238 4.347 o
2 7 2 142.950 142.044 1.688 2.059 o
2 7 3 108.236 109.929 1.427 3.475 o
2 7 4 103.060 103.737 1.449 3.802 o
2 7 5 14.844 14.331 0.711 85.408 o
2 7 6 77.944 78.096 1.582 5.950 o
2 7 7 87.093 84.720 1.799 4.805 o
2 7 8 44.472 42.349 1.388 14.565 o
2 7 9 10.623 10.700 0.933 68.862 o
2 7 10 27.530 26.552 1.333 24.514 o
2 8 0 0.298 0.777 0.311 745.276 o
2 8 1 4.423 4.903 0.361 442.049 o
2 8 2 141.301 145.787 1.777 2.037 o
2 8 3 120.429 121.095 1.571 2.829 o
2 8 4 115.097 117.913 1.610 3.020 o
2 8 5 62.181 63.504 1.188 9.475 o
2 8 7 82.069 83.410 1.788 5.167 o
2 8 9 1.951 3.404 0.550 232.061 o
2 8 10 31.909 30.783 1.416 20.187 o
2 8 11 6.216 5.730 0.661 146.152 o
2 9 0 245.425 237.697 2.615 0.720 o
2 9 1 273.769 276.398 2.976 0.563 o
2 9 2 131.522 129.657 1.632 2.423 o
2 9 3 293.495 292.961 3.226 0.492 o
2 9 4 48.115 49.228 0.994 15.332 o
2 9 5 25.920 26.519 0.816 41.360 o
2 9 6 3.746 4.986 0.489 271.630 o
2 9 7 4.688 5.047 0.539 221.286 o
2 9 8 11.818 11.910 0.805 83.026 o
2 9 9 38.884 38.845 1.449 16.080 o
2 9 10 11.731 12.377 0.933 65.941 o
2 10 0 252.289 257.331 2.821 0.656 o
2 10 1 9.194 8.812 0.466 207.824 o
2 10 2 2.713 2.676 0.372 482.131 o
2 10 3 260.005 260.079 2.959 0.623 o
2 10 4 139.846 140.006 1.905 2.086 o
2 10 5 141.153 140.328 1.993 2.040 o
2 10 6 10.659 12.260 0.705 103.895 o
2 10 7 9.102 9.617 0.805 92.155 o
2 10 8 1.225 1.427 0.494 292.897 o
2 10 9 12.757 14.298 1.033 53.722 o
2 10 10 33.601 33.926 1.466 18.301 o
2 10 11 5.821 6.380 0.794 105.142 o
2 11 0 2.192 2.438 0.361 522.199 o
2 11 1 5.120 4.808 0.433 317.847 o
2 11 2 65.013 64.870 1.138 9.051 o
2 11 3 12.069 12.160 0.589 124.969 o
2 11 4 51.608 50.428 1.088 13.530 o
2 11 5 60.793 61.078 1.272 9.646 o
2 11 6 105.546 105.775 1.810 3.448 o
2 11 7 96.596 98.835 2.088 3.730 o
2 11 8 9.883 8.634 0.788 94.665 o
2 11 9 15.258 15.830 1.088 46.264 o
2 11 10 43.410 44.886 1.605 12.839 o
2 11 11 3.526 4.642 0.622 175.995 o
2 12 0 45.990 43.904 0.922 17.622 o
2 12 1 41.509 41.172 0.900 20.502 o
2 12 2 58.100 57.996 1.094 11.050 o
2 12 3 85.695 85.509 1.427 5.291 o
2 12 4 13.409 12.832 0.661 101.322 o
2 12 5 15.175 14.486 0.755 78.210 o
2 12 6 8.311 7.984 0.550 176.841 o
2 12 7 1.453 2.204 0.394 451.852 o
2 12 9 17.423 17.585 1.149 40.048 o
2 12 10 48.867 48.940 1.705 10.797 o
2 13 0 170.730 169.929 2.171 1.423 o
2 13 1 82.066 80.761 1.366 5.815 o
2 13 2 73.824 74.370 1.321 6.931 o
2 13 3 44.223 44.398 1.044 17.218 o
2 13 5 1.456 2.288 0.383 477.104 o
2 13 6 61.225 63.093 1.438 8.889 o
2 13 7 49.365 49.539 1.377 12.531 o
2 13 8 34.679 31.816 1.388 19.381 o
2 13 9 34.403 35.581 1.477 17.629 o
2 13 10 6.841 7.185 0.694 129.474 o
2 14 0 12.149 11.061 0.611 121.855 o
2 14 1 43.991 45.258 1.033 17.236 o
2 14 2 32.773 34.226 0.922 27.770 o
2 14 3 50.553 48.773 1.149 13.696 o
2 14 4 12.466 11.838 0.711 97.266 o
2 14 5 94.997 93.571 1.738 4.206 o
2 14 6 10.894 11.405 0.755 94.591 o
2 14 7 38.495 40.761 1.260 17.933 o
2 14 8 8.570 10.100 0.816 90.724 o
2 14 9 71.136 73.215 2.004 5.927 o
2 14 10 17.582 17.307 1.166 39.194 o
2 15 0 73.845 70.761 1.344 7.079 o
2 15 1 22.053 24.031 0.816 48.713 o
2 15 2 32.944 32.199 0.949 27.843 o
2 15 3 16.948 17.185 0.805 65.258 o
2 15 4 12.850 12.987 0.755 86.699 o
2 15 5 11.642 12.865 0.777 86.640 o
2 15 6 58.253 57.480 1.460 9.684 o
2 15 7 32.629 33.182 1.210 22.790 o
2 15 8 6.922 7.102 0.705 125.841 o
2 15 10 2.816 2.987 0.577 208.638 o
2 16 0 39.520 37.429 1.033 20.916 o
2 16 1 3.314 3.609 0.405 395.618 o
2 16 2 77.803 74.104 1.477 6.299 o
2 16 3 2.338 2.821 0.405 415.062 o
2 16 4 24.993 25.508 0.933 38.574 o
2 16 5 1.073 1.149 0.361 547.045 o
2 16 6 15.407 15.564 0.911 59.843 o
2 16 7 4.552 4.342 0.489 267.191 o
2 16 8 2.307 3.287 0.478 302.502 o
2 16 9 16.433 15.725 1.022 49.529 o
2 17 0 35.572 36.097 1.055 23.030 o
2 17 1 11.378 10.194 0.705 105.004 o
2 17 3 11.147 12.915 0.766 89.755 o
2 17 4 40.319 39.228 1.199 18.212 o
2 17 5 5.434 5.397 0.489 253.371 o
2 17 6 48.335 47.502 1.388 12.936 o
2 17 7 50.926 51.461 1.499 11.316 o
2 17 8 24.720 23.804 1.149 31.904 o
2 17 9 3.852 4.386 0.527 237.839 o
2 18 0 43.000 44.220 1.210 16.237 o
2 18 1 10.303 10.072 0.733 102.847 o
2 18 2 9.601 10.950 0.744 101.295 o
2 18 3 2.738 2.132 0.394 436.578 o
2 18 4 27.073 25.686 1.055 32.337 o
2 18 5 45.240 44.864 1.388 14.027 o
2 18 6 50.687 50.261 1.477 11.600 o
2 18 7 9.539 10.017 0.777 95.966 o
2 18 8 1.758 1.943 0.433 374.970 o
2 19 0 36.237 38.207 1.177 20.401 o
2 19 1 29.033 29.584 1.077 28.760 o
2 19 2 1.277 1.149 0.372 513.465 o
2 19 3 38.974 39.334 1.233 18.337 o
2 19 4 8.846 8.817 0.711 114.958 o
2 19 5 9.712 11.261 0.850 81.459 o
2 19 6 1.540 2.376 0.444 356.950 o
2 19 7 6.055 7.091 0.639 152.960 o
2 19 8 6.025 6.802 0.550 198.204 o
2 20 0 1.613 0.933 0.372 511.173 o
2 20 1 70.505 72.499 1.655 6.713 o
2 20 2 31.351 32.227 1.138 25.075 o
2 20 3 9.304 10.000 0.672 121.395 o
2 20 4 25.196 26.974 1.105 31.773 o
2 20 5 1.394 1.427 0.422 399.015 o
2 20 6 3.865 3.859 0.489 275.528 o
2 20 7 0.393 0.994 0.411 426.860 o
2 21 0 8.495 7.829 0.650 136.272 o
2 21 1 27.928 29.212 1.138 28.125 o
2 21 2 29.602 30.605 1.177 25.759 o
2 21 3 44.903 43.859 1.388 14.247 o
2 21 4 20.361 20.522 1.055 40.759 o
2 21 5 0.977 0.961 0.411 424.506 o
2 21 6 14.245 13.915 0.972 57.337 o
2 21 7 11.956 10.528 0.805 84.349 o
2 22 0 16.312 15.303 0.938 56.255 o
2 22 1 23.997 23.604 1.088 34.634 o
2 22 2 3.319 3.609 0.478 293.295 o
2 22 3 9.013 7.901 0.722 113.065 o
2 22 4 19.055 16.985 1.044 44.507 o
2 22 5 19.890 21.227 1.055 40.877 o
2 22 6 46.724 46.280 1.438 13.126 o
2 23 0 10.704 11.288 0.888 73.957 o
2 23 1 2.872 2.593 0.455 329.324 o
2 23 2 1.721 2.565 0.455 338.402 o
2 23 3 4.109 5.275 0.577 197.797 o
2 23 4 22.059 23.731 1.088 36.232 o
2 23 5 16.913 16.646 1.033 47.710 o
2 24 0 33.069 32.765 1.249 22.014 o
2 24 1 38.718 41.627 1.355 16.685 o
2 24 2 9.214 8.817 0.766 100.711 o
2 24 4 4.615 3.381 0.478 282.385 o
2 25 0 3.190 4.164 0.577 204.796 o
2 25 1 23.363 23.265 1.333 27.398 o
2 25 2 41.891 40.395 1.688 12.990 o
2 25 3 12.843 13.215 1.088 49.829 o
2 26 0 1.017 1.088 0.455 345.914 o
2 26 1 30.485 30.833 1.466 19.898 o
3 0 1 175.045 177.697 1.882 1.374 o
3 0 3 179.629 185.504 2.066 1.278 o
3 0 4 11.511 11.716 0.478 164.087 o
3 0 5 51.571 50.517 0.983 14.104 o
3 0 7 5.793 5.986 1.011 67.220 o
3 0 8 2.067 2.160 1.011 70.320 o
3 0 9 72.055 69.823 2.737 4.647 o
3 0 12 7.366 5.586 1.688 24.745 o
3 1 0 29.639 31.372 0.516 42.170 o
3 1 1 354.461 373.256 3.681 0.329 o
3 1 2 189.567 181.800 1.988 1.217 o
3 1 3 253.284 254.333 2.699 0.662 o
3 1 4 117.658 114.626 1.488 3.039 o
3 1 5 45.694 45.225 0.933 17.386 o
3 1 6 3.573 3.826 0.516 251.172 o
3 1 8 114.744 115.131 3.359 2.245 o
3 1 9 11.927 12.088 1.427 31.937 o
3 1 10 55.513 58.068 2.637 6.028 o
3 1 11 10.960 11.105 1.694 23.627 o
3 1 12 6.533 7.401 1.694 24.578 o
3 2 1 59.498 59.651 0.794 11.561 o
3 2 2 270.478 274.949 2.821 0.577 o
3 2 3 16.585 17.596 0.516 100.314 o
3 2 4 31.119 31.316 0.705 35.452 o
3 2 5 36.524 35.869 0.838 25.885 o
3 2 6 41.824 42.177 1.105 18.028 o
3 2 7 154.249 153.116 3.776 1.396 o
3 2 8 59.017 60.178 2.376 6.431 o
3 2 9 20.284 19.611 1.632 21.890 o
3 2 10 27.726 28.090 2.027 13.547 o
3 2 11 14.499 15.336 1.749 21.232 o
3 2 12 3.490 3.309 1.549 29.896 o
3 3 0 70.012 69.989 0.888 8.446 o
3 3 1 438.883 439.314 4.303 0.223 o
3 3 2 273.506 269.891 2.804 0.576 o
3 3 3 175.393 169.135 1.943 1.406 o
3 3 4 79.454 81.011 1.199 6.243 o
3 3 5 71.569 74.082 1.233 7.353 o
3 3 6 4.480 4.881 0.566 203.954 o
3 3 7 30.453 29.334 1.088 27.605 o
3 3 8 45.601 46.386 2.121 9.229 o
3 3 9 13.834 14.114 1.510 27.932 o
3 3 10 81.464 83.449 3.215 3.438 o
3 3 11 35.056 35.258 2.304 9.951 o
3 4 0 413.402 418.326 4.087 0.249 o
3 4 1 82.687 82.832 1.055 6.041 o
3 4 2 55.470 55.708 0.866 12.811 o
3 4 3 13.374 12.760 0.489 140.724 o
3 4 4 25.405 25.281 0.650 50.133 o
3 4 5 72.590 72.460 1.233 7.329 o
3 4 6 10.019 9.667 0.683 116.261 o
3 4 7 10.792 9.750 0.794 89.990 o
3 4 8 40.063 39.445 1.321 16.950 o
3 4 9 102.530 103.160 3.415 2.546 o
3 4 10 12.803 12.088 1.594 25.917 o
3 4 11 16.730 17.141 1.893 17.914 o
3 5 0 214.683 211.001 2.243 0.935 o
3 5 1 23.920 24.575 0.539 59.554 o
3 5 2 324.949 318.531 3.298 0.411 o
3 5 3 205.754 216.487 2.399 0.961 o
3 5 4 275.181 273.639 3.021 0.562 o
3 5 5 74.499 73.215 1.249 7.046 o
3 5 6 21.727 21.266 0.866 48.580 o
3 5 7 32.996 32.443 1.138 24.077 o
3 5 8 39.851 39.012 1.321 17.095 o
3 5 10 6.795 7.235 1.427 34.223 o
3 5 11 15.508 15.841 1.766 20.631 o
3 6 0 38.301 39.889 0.705 25.032 o
3 6 1 66.589 69.751 0.994 8.770 o
3 6 2 641.842 645.407 6.330 0.104 o
3 6 3 3.572 3.431 0.383 434.275 o
3 6 4 85.598 80.894 1.260 5.655 o
3 6 5 42.536 44.503 0.972 18.527 o
3 6 6 19.358 18.851 0.866 54.191 o
3 6 7 12.425 12.149 0.861 73.635 o
3 6 8 26.875 26.519 1.149 29.435 o
3 6 9 8.298 8.190 0.672 129.198 o
3 6 10 23.116 23.615 1.260 29.532 o
3 6 11 12.063 12.282 1.716 22.756 o
3 7 0 247.197 245.887 2.637 0.698 o
3 7 1 161.678 161.050 1.882 1.611 o
3 7 2 6.554 7.385 0.422 286.839 o
3 7 3 257.739 257.259 2.854 0.638 o
3 7 4 57.883 60.206 1.088 10.888 o
3 7 5 123.278 123.971 1.777 2.644 o
3 7 6 40.830 39.789 1.160 18.325 o
3 7 7 35.437 36.413 1.222 20.538 o
3 7 8 30.301 30.616 1.222 24.440 o
3 7 9 8.478 9.128 0.755 104.768 o
3 7 10 10.147 11.838 0.900 72.957 o
3 7 11 22.666 22.832 1.305 28.677 o
3 8 0 78.600 81.694 1.166 6.334 o
3 8 1 43.457 43.199 0.816 19.813 o
3 8 2 90.911 90.017 1.283 4.930 o
3 8 3 43.415 43.571 0.877 19.200 o
3 8 4 53.871 54.498 1.066 12.521 o
3 8 5 195.003 189.296 2.421 1.112 o
3 8 6 19.796 18.984 0.805 57.714 o
3 8 7 12.723 11.283 0.866 73.182 o
3 8 8 34.823 33.787 1.305 20.153 o
3 8 9 46.041 43.759 1.549 12.794 o
3 8 10 7.797 7.340 0.694 125.876 o
3 8 11 6.043 6.596 0.816 99.356 o
3 9 0 111.925 109.012 1.460 3.339 o
3 9 1 397.932 386.510 4.064 0.275 o
3 9 2 63.655 62.949 1.066 9.621 o
3 9 3 25.172 26.458 0.733 45.863 o
3 9 4 66.947 68.146 1.233 8.299 o
3 9 5 1.921 1.838 0.478 309.381 o
3 9 6 32.466 32.776 0.983 27.303 o
3 9 7 107.134 110.167 2.160 3.115 o
3 9 8 22.872 22.438 1.138 34.190 o
3 9 9 6.432 6.369 0.650 148.400 o
3 9 10 34.947 33.770 1.466 17.887 o
3 9 11 11.344 10.889 0.850 78.560 o
3 10 0 30.310 30.389 0.733 36.212 o
3 10 1 38.012 37.335 0.827 24.520 o
3 10 2 259.197 256.837 2.915 0.632 o
3 10 3 11.412 11.694 0.566 136.241 o
3 10 4 21.853 21.227 0.733 56.482 o
3 10 5 136.203 135.054 2.004 2.173 o
3 10 6 23.772 24.265 0.900 42.093 o
3 10 7 50.984 51.211 1.321 12.295 o
3 10 8 5.451 4.459 0.566 199.548 o
3 10 9 28.387 28.279 1.310 24.167 o
3 10 10 7.828 7.685 0.850 88.423 o
3 10 11 8.771 9.089 0.877 80.821 o
3 11 0 257.105 254.299 2.893 0.643 o
3 11 1 56.342 54.198 1.044 12.057 o
3 11 2 37.184 35.009 0.861 25.382 o
3 11 3 79.046 76.769 1.333 6.290 o
3 11 4 30.483 29.345 0.888 32.476 o
3 11 5 5.677 7.385 0.539 205.432 o
3 11 6 69.564 68.646 1.466 7.411 o
3 11 7 6.350 6.235 0.489 239.471 o
3 11 8 101.818 101.133 2.243 3.379 o
3 11 9 3.916 4.303 0.600 187.531 o
3 11 10 5.173 4.631 0.622 169.623 o
3 11 11 11.078 9.511 2.976 8.003 o
3 12 0 9.904 8.284 0.539 168.482 o
3 12 1 56.880 55.036 1.094 11.630 o
3 12 2 108.346 107.663 1.644 3.404 o
3 12 3 40.838 40.622 0.983 20.077 o
3 12 4 29.081 30.317 0.911 32.737 o
3 12 5 126.625 124.893 1.988 2.481 o
3 12 6 2.939 3.648 0.433 355.194 o
3 12 7 2.456 2.421 0.405 416.089 o
3 12 8 17.131 17.474 1.088 43.661 o
3 12 9 4.259 4.992 0.622 172.605 o
3 12 10 0.842 1.138 0.516 269.733 o
3 13 0 3.242 2.771 0.455 325.112 o
3 13 1 89.704 90.584 1.532 4.759 o
3 13 2 26.414 26.519 0.827 40.306 o
3 13 3 11.157 12.560 0.672 108.616 o
3 13 4 103.995 105.864 1.766 3.531 o
3 13 5 9.910 10.389 0.722 106.041 o
3 13 6 58.016 57.169 1.416 9.917 o
3 13 7 38.021 38.545 1.238 18.796 o
3 13 8 7.399 6.391 0.589 169.919 o
3 13 9 1.798 1.560 0.539 245.290 o
3 13 10 20.734 19.284 1.233 33.323 o
3 14 0 2.928 3.792 0.494 277.437 o
3 14 1 27.635 27.379 0.866 37.004 o
3 14 2 6.644 6.719 0.600 168.096 o
3 14 3 9.247 9.173 0.600 146.218 o
3 14 4 9.770 10.161 0.694 113.478 o
3 14 5 68.734 64.665 1.477 7.708 o
3 14 6 24.674 26.036 1.033 34.965 o
3 14 7 50.264 49.617 1.394 12.225 o
3 14 8 4.511 4.642 0.494 260.926 o
3 14 9 29.201 31.527 1.377 21.770 o
3 14 10 18.158 17.174 1.149 39.614 o
3 15 0 22.515 24.309 0.861 45.535 o
3 15 1 1.586 2.016 0.372 505.123 o
3 15 2 13.243 13.048 0.722 90.783 o
3 15 3 12.516 12.171 0.733 92.569 o
3 15 4 38.271 38.007 1.127 20.182 o
3 15 5 44.182 44.731 1.260 15.351 o
3 15 6 7.215 7.268 0.589 168.394 o
3 15 7 37.986 37.624 1.283 18.450 o
3 15 8 18.588 18.229 1.005 46.619 o
3 15 9 6.735 6.491 0.622 158.235 o
3 16 0 44.200 43.415 1.149 16.498 o
3 16 1 38.035 39.828 1.105 20.153 o
3 16 2 36.180 37.130 1.077 22.093 o
3 16 3 1.759 2.066 0.394 449.340 o
3 16 4 16.585 17.485 0.850 61.596 o
3 16 5 9.897 10.122 0.788 92.772 o
3 16 6 42.112 42.166 1.321 15.852 o
3 16 7 2.997 2.815 0.455 327.196 o
3 16 8 17.962 15.530 1.005 48.968 o
3 16 9 10.043 9.128 0.672 120.151 o
3 17 0 41.911 42.788 1.177 17.173 o
3 17 1 30.953 30.533 1.022 28.360 o
3 17 2 28.753 28.856 1.011 30.959 o
3 17 3 8.912 8.273 0.639 137.008 o
3 17 4 32.451 32.549 1.127 24.561 o
3 17 5 2.885 3.176 0.444 341.997 o
3 17 6 24.464 24.248 1.077 34.367 o
3 17 7 3.156 2.865 0.455 325.486 o
3 17 8 10.771 11.344 0.911 70.901 o
3 17 9 22.507 22.044 1.094 36.354 o
3 18 0 1.483 2.160 0.383 477.527 o
3 18 1 52.201 51.666 1.344 11.858 o
3 18 2 8.855 9.151 0.722 111.550 o
3 18 4 24.129 25.764 1.066 34.397 o
3 18 5 5.710 6.474 0.539 208.663 o
3 18 6 10.716 10.300 0.777 92.497 o
3 18 7 7.855 7.918 0.639 142.864 o
3 18 8 8.844 8.418 0.650 133.370 o
3 19 0 2.756 2.976 0.422 379.005 o
3 19 1 19.238 19.956 0.933 49.128 o
3 19 2 6.459 5.591 0.550 199.435 o
3 19 3 10.058 10.400 0.827 85.208 o
3 19 4 17.961 17.063 0.949 51.787 o
3 19 5 12.401 10.722 0.788 85.665 o
3 19 6 21.951 22.066 1.094 36.828 o
3 19 7 21.411 21.083 1.094 37.735 o
3 19 8 22.583 23.359 1.127 34.465 o
3 20 0 26.160 28.246 1.088 31.057 o
3 20 1 3.888 3.742 0.455 313.435 o
3 20 2 11.783 11.694 0.850 76.856 o
3 20 3 6.951 6.185 0.527 206.971 o
3 20 4 21.337 21.083 1.022 41.080 o
3 20 5 2.015 2.865 0.466 320.047 o
3 20 6 62.687 64.176 1.677 7.908 o
3 20 7 10.439 9.273 0.755 98.989 o
3 21 0 30.548 30.728 1.160 25.527 o
3 21 1 65.504 68.457 1.655 7.417 o
3 21 3 1.902 1.632 0.422 394.489 o
3 21 4 24.305 26.036 1.127 32.102 o
3 21 5 3.419 3.620 0.489 280.222 o
3 21 6 5.412 5.841 0.539 213.274 o
3 21 7 5.190 5.264 0.516 233.410 o
3 22 0 3.784 4.126 0.489 275.081 o
3 22 1 66.027 62.699 1.655 7.675 o
3 22 2 2.972 2.843 0.455 327.302 o
3 22 3 6.631 6.463 0.550 195.030 o
3 22 4 6.972 7.052 0.633 151.152 o
3 22 5 15.985 15.303 1.005 51.506 o
3 22 6 6.081 5.214 0.516 226.051 o
3 23 1 15.818 15.641 0.961 54.919 o
3 23 2 10.323 9.928 0.877 77.383 o
3 23 3 40.607 40.261 1.394 15.917 o
3 23 4 10.233 10.161 0.866 78.972 o
3 23 5 2.918 3.815 0.489 283.363 o
3 24 0 9.376 8.146 0.661 128.182 o
3 24 1 28.159 30.172 1.222 25.728 o
3 24 2 27.113 27.885 1.188 27.810 o
3 24 3 7.105 8.601 0.733 114.974 o
3 24 4 1.014 1.105 0.411 423.926 o
3 25 0 28.363 29.911 1.449 21.124 o
3 25 1 6.641 7.890 0.777 105.822 o
3 25 2 4.449 4.592 0.566 204.927 o
4 0 0 386.889 397.204 3.937 0.281 o
4 0 1 1.291 1.477 0.300 779.092 o
4 0 2 10.729 10.866 0.444 189.567 o
4 0 3 5.141 4.736 0.394 370.495 o
4 0 4 76.127 78.240 1.210 6.678 o
4 0 5 27.490 28.268 0.788 39.235 o
4 0 7 142.628 140.068 2.132 1.985 o
4 0 8 42.454 44.892 2.121 9.682 o
4 0 9 19.306 19.512 1.677 21.221 o
4 0 11 29.275 28.268 2.160 12.064 o
4 1 0 395.898 391.268 3.931 0.276 o
4 1 1 144.372 150.417 1.727 1.956 o
4 1 2 272.114 267.503 2.865 0.582 o
4 1 3 233.088 227.314 2.510 0.794 o
4 1 4 127.096 125.531 1.655 2.569 o
4 1 5 23.176 23.304 0.722 52.546 o
4 1 6 91.115 89.573 1.521 4.716 o
4 1 7 10.470 9.556 0.722 105.568 o
4 1 8 19.216 19.906 1.260 33.040 o
4 1 9 13.024 13.898 1.510 28.220 o
4 1 10 82.974 84.204 3.265 3.334 o
4 2 0 40.669 40.767 0.711 23.083 o
4 2 1 34.344 35.042 0.672 30.802 o
4 2 2 10.518 9.800 0.455 192.883 o
4 2 3 39.076 38.895 0.794 23.749 o
4 2 4 34.888 34.537 0.794 28.380 o
4 2 5 6.174 6.274 0.494 236.821 o
4 2 6 13.942 15.508 0.694 88.881 o
4 2 7 13.093 13.009 0.850 72.856 o
4 2 8 13.740 13.915 0.922 62.791 o
4 2 9 12.581 13.493 1.477 29.576 o
4 2 10 14.537 14.403 1.666 23.265 o
4 2 11 3.198 3.215 1.366 38.418 o
4 3 0 2.111 1.777 0.311 701.795 o
4 3 1 152.222 152.511 1.766 1.812 o
4 3 2 77.015 76.058 1.094 6.870 o
4 3 3 474.462 469.509 4.747 0.192 o
4 3 4 99.165 97.913 1.416 4.139 o
4 3 5 169.950 165.898 2.138 1.456 o
4 3 6 28.515 26.058 0.850 37.305 o
4 3 7 11.840 12.271 0.827 79.262 o
4 3 8 12.339 11.971 0.900 69.138 o
4 3 9 23.997 24.514 1.222 29.895 o
4 3 10 4.237 3.143 1.305 41.882 o
4 3 11 9.927 9.151 1.594 26.902 o
4 4 0 36.320 37.452 0.711 27.380 o
4 4 1 13.405 12.282 0.466 148.520 o
4 4 2 200.335 202.406 2.277 1.044 o
4 4 3 99.200 96.253 1.355 4.220 o
4 4 4 35.334 35.536 0.816 27.247 o
4 4 5 29.215 28.951 0.805 36.268 o
4 4 6 12.644 12.016 0.672 103.798 o
4 4 7 66.666 66.069 1.605 7.546 o
4 4 8 28.740 29.584 1.199 26.064 o
4 4 9 57.489 60.145 1.738 8.583 o
4 4 10 31.242 30.689 1.388 20.918 o
4 4 11 35.373 33.482 2.288 10.116 o
4 5 0 16.333 15.614 0.516 106.743 o
4 5 1 61.031 60.755 0.961 10.614 o
4 5 2 140.487 137.441 1.727 2.137 o
4 5 3 112.196 109.762 1.510 3.293 o
4 5 4 86.412 88.385 1.377 5.195 o
4 5 5 83.953 85.725 1.427 5.407 o
4 5 6 141.699 139.768 2.049 2.022 o
4 5 7 15.660 16.613 0.922 57.640 o
4 5 8 4.493 4.464 0.550 216.450 o
4 5 9 14.527 14.081 1.022 52.713 o
4 5 10 61.861 58.573 1.849 7.796 o
4 5 11 13.472 13.315 1.366 33.609 o
4 6 0 135.010 133.299 1.655 2.303 o
4 6 1 44.872 44.026 0.827 18.841 o
4 6 2 33.776 32.738 0.733 31.308 o
4 6 3 5.346 5.491 0.433 309.353 o
4 6 4 56.347 56.763 1.088 11.579 o
4 6 5 13.190 13.948 0.633 105.207 o
4 6 6 41.558 41.810 1.088 18.378 o
4 6 7 20.467 20.411 0.866 51.156 o
4 6 8 10.158 9.162 0.777 95.466 o
4 6 9 39.023 36.708 1.466 16.179 o
4 6 10 29.390 28.529 1.388 22.111 o
4 7 0 89.897 89.179 1.283 5.024 o
4 7 1 253.015 248.458 2.760 0.670 o
4 7 2 185.932 179.224 2.171 1.242 o
4 7 3 60.870 61.200 1.094 10.193 o
4 7 4 43.173 43.498 0.972 18.469 o
4 7 5 36.568 35.653 0.949 24.207 o
4 7 6 42.613 40.922 1.094 18.074 o
4 7 7 27.222 26.502 0.983 34.098 o
4 7 8 34.557 33.037 1.310 20.334 o
4 7 9 5.152 5.675 0.633 162.240 o
4 7 10 17.017 15.808 1.127 42.326 o
4 7 11 5.541 6.857 0.683 138.212 o
4 8 0 141.549 134.082 1.727 2.149 o
4 8 1 44.115 43.487 0.877 18.894 o
4 8 2 163.716 163.416 2.038 1.551 o
4 8 3 90.931 88.174 1.405 4.878 o
4 8 4 8.369 9.039 0.550 172.460 o
4 8 5 47.948 48.823 1.105 14.722 o
4 8 6 57.090 54.903 1.294 10.773 o
4 8 7 54.030 52.316 1.333 11.462 o
4 8 8 3.970 3.787 0.550 221.517 o
4 8 9 83.987 86.436 2.149 4.513 o
4 8 10 14.597 15.714 1.127 44.471 o
4 8 11 22.384 20.889 1.294 29.714 o
4 9 0 131.178 131.828 1.749 2.375 o
4 9 1 4.106 4.303 0.411 368.088 o
4 9 2 5.296 5.708 0.455 284.532 o
4 9 3 31.754 32.371 0.838 31.128 o
4 9 4 2.212 1.460 0.455 338.813 o
4 9 5 47.471 45.486 1.127 15.237 o
4 9 6 141.535 137.452 2.149 2.021 o
4 9 7 6.482 6.319 0.600 170.076 o
4 9 8 94.267 90.356 2.138 3.956 o
4 9 9 16.502 17.268 1.116 42.760 o
4 9 11 8.992 9.978 0.866 81.418 o
4 10 0 70.949 69.967 1.210 7.713 o
4 10 1 35.281 34.659 0.838 27.245 o
4 10 2 40.037 41.721 0.938 20.691 o
4 10 3 17.913 17.135 0.683 75.263 o
4 10 4 34.701 36.541 0.972 24.745 o
4 10 5 24.326 27.491 0.900 39.496 o
4 10 6 28.066 26.758 0.994 32.888 o
4 10 7 43.077 44.503 1.249 15.825 o
4 10 8 19.726 19.428 1.005 44.606 o
4 10 9 18.395 20.195 1.166 37.428 o
4 10 10 14.757 15.292 1.127 44.516 o
4 11 0 12.512 12.821 0.622 113.132 o
4 11 1 273.201 269.663 3.132 0.569 o
4 11 2 18.582 18.934 0.705 68.743 o
4 11 3 30.709 30.056 0.877 32.220 o
4 11 4 23.794 24.859 0.850 43.913 o
4 11 5 8.999 10.011 0.672 122.626 o
4 11 6 35.771 37.008 1.105 21.929 o
4 11 7 52.043 52.804 1.405 11.457 o
4 11 8 10.046 8.962 0.744 102.948 o
4 11 10 6.669 7.163 0.694 130.095 o
4 12 0 246.943 243.372 3.009 0.690 o
4 12 1 68.142 68.590 1.294 7.972 o
4 12 2 47.075 46.880 1.077 15.499 o
4 12 3 42.109 42.566 1.077 18.109 o
4 12 4 69.447 69.834 1.416 7.468 o
4 12 5 19.610 19.561 0.877 52.452 o
4 12 6 62.142 64.004 1.488 8.545 o
4 12 7 37.524 40.561 1.249 18.464 o
4 12 8 0.366 0.861 0.405 438.889 o
4 12 9 24.011 24.153 1.310 27.439 o
4 12 10 1.555 1.644 0.550 236.170 o
4 13 0 67.476 70.061 1.321 7.900 o
4 13 1 45.170 43.487 1.066 16.845 o
4 13 3 12.664 12.471 0.711 95.529 o
4 13 4 26.136 26.419 0.938 36.671 o
4 13 5 6.203 6.813 0.600 170.252 o
4 13 6 49.475 49.950 1.344 12.658 o
4 13 7 10.692 10.661 0.744 98.436 o
4 13 8 54.900 53.271 1.532 10.279 o
4 13 9 9.252 9.428 0.777 97.478 o
4 13 10 10.207 8.812 0.722 107.667 o
4 14 0 3.306 2.854 0.372 468.943 o
4 14 1 46.056 46.724 1.138 15.410 o
4 14 2 13.851 14.598 0.744 83.216 o
4 14 3 23.761 22.788 0.900 43.034 o
4 14 4 8.622 9.306 0.639 135.924 o
4 14 5 9.083 8.612 0.650 131.847 o
4 14 6 12.648 12.654 0.838 75.572 o
4 14 7 31.900 31.016 1.188 24.133 o
4 14 8 34.645 34.587 1.283 20.387 o
4 14 9 10.565 11.932 0.911 70.759 o
4 15 0 12.552 12.799 0.722 93.396 o
4 15 1 45.905 45.564 1.177 15.348 o
4 15 2 15.391 15.242 0.788 72.674 o
4 15 3 74.919 74.559 1.538 6.434 o
4 15 4 43.572 40.533 1.210 16.669 o
4 15 5 2.199 1.988 0.405 421.648 o
4 15 6 55.410 55.347 1.488 10.213 o
4 15 7 1.549 2.149 0.433 375.752 o
4 15 8 1.948 2.277 0.455 337.839 o
4 15 9 27.946 26.902 1.166 28.161 o
4 16 0 91.399 91.650 1.716 4.459 o
4 16 1 53.766 53.104 1.305 11.570 o
4 16 2 18.263 16.752 0.850 59.174 o
4 16 3 27.438 27.679 1.022 32.211 o
4 16 4 54.894 54.592 1.416 10.686 o
4 16 5 20.895 21.466 1.005 42.157 o
4 16 6 17.307 18.506 0.983 49.418 o
4 16 7 3.034 3.415 0.478 296.490 o
4 16 8 11.168 9.945 0.794 88.819 o
4 16 9 1.508 2.493 0.455 340.010 o
4 17 0 0.978 1.199 0.350 582.529 o
4 17 1 17.699 17.257 0.877 57.467 o
4 17 2 20.405 19.595 0.922 48.444 o
4 17 3 1.534 0.972 0.361 543.089 o
4 17 4 62.157 60.300 1.532 8.655 o
4 17 5 9.671 10.494 0.816 87.845 o
4 17 6 41.981 42.888 1.377 15.281 o
4 17 7 9.978 9.534 0.788 93.307 o
4 18 0 1.973 2.066 0.394 446.918 o
4 18 1 31.759 31.388 1.088 26.088 o
4 18 2 5.994 6.191 0.550 200.623 o
4 18 3 20.495 21.877 1.005 42.371 o
4 18 4 1.926 1.605 0.411 415.361 o
4 18 5 1.859 2.338 0.444 354.821 o
4 18 6 26.416 26.935 1.149 29.606 o
4 18 7 6.418 5.780 0.539 205.906 o
4 18 8 16.696 16.480 1.005 49.923 o
4 19 0 8.790 7.340 0.672 128.925 o
4 19 1 41.390 43.137 1.294 16.184 o
4 19 2 11.186 11.344 0.838 80.046 o
4 19 3 33.321 35.475 1.210 21.893 o
4 19 4 9.060 8.601 0.639 135.516 o
4 19 5 5.623 5.519 0.527 220.590 o
4 19 6 37.439 37.541 1.310 18.333 o
4 19 7 14.685 13.098 0.922 61.938 o
4 20 1 32.165 33.076 1.199 23.247 o
4 20 2 7.762 8.540 0.622 147.927 o
4 20 3 13.578 13.370 0.888 67.032 o
4 20 4 22.871 22.810 1.105 35.288 o
4 20 5 29.670 29.417 1.210 25.340 o
4 20 6 1.190 1.882 0.433 379.006 o
4 20 7 1.404 1.977 0.433 377.359 o
4 21 0 7.046 8.084 0.633 148.368 o
4 21 1 8.266 7.818 0.705 120.157 o
4 21 2 7.995 9.628 0.838 88.325 o
4 21 3 34.486 34.181 1.272 20.707 o
4 21 4 19.303 20.367 1.055 41.896 o
4 21 5 1.569 2.254 0.444 357.163 o
4 21 6 23.994 22.776 1.116 33.978 o
4 22 1 17.731 14.464 0.972 52.265 o
4 22 2 8.685 9.833 0.672 124.280 o
4 22 3 27.523 25.758 1.177 28.509 o
4 22 4 1.910 2.110 0.478 308.702 o
4 22 5 1.083 1.094 0.411 423.574 o
4 23 0 4.173 4.847 0.516 243.183 o
4 23 1 2.575 2.210 0.455 333.433 o
4 23 2 18.806 17.940 1.044 44.264 o
4 23 3 1.079 1.005 0.411 423.845 o
4 23 4 64.828 64.764 1.677 7.633 o
4 24 0 22.602 22.116 1.094 36.242 o
4 24 1 20.212 19.850 1.066 40.696 o
4 24 2 1.837 1.632 0.422 395.019 o
4 24 3 15.818 14.126 0.983 54.164 o
4 25 1 5.180 5.292 0.589 185.596 o
5 0 1 5.724 6.047 0.411 324.579 o
5 0 2 334.554 335.660 3.559 0.379 o
5 0 3 30.693 31.588 0.777 33.986 o
5 0 5 7.784 7.174 0.566 175.537 o
5 0 6 48.793 48.079 1.166 14.181 o
5 0 7 1.193 1.510 0.372 512.523 o
5 0 8 38.000 37.180 1.188 19.706 o
5 0 10 76.874 76.141 3.176 3.727 o
5 0 11 5.425 3.792 1.538 30.084 o
5 1 0 43.467 40.717 0.788 20.700 o
5 1 1 140.494 135.553 1.688 2.163 o
5 1 2 177.807 171.872 2.077 1.356 o
5 1 3 200.222 201.723 2.399 1.038 o
5 1 4 70.313 70.989 1.233 7.684 o
5 1 5 192.731 189.007 2.421 1.130 o
5 1 6 47.471 46.136 1.127 15.134 o
5 1 7 29.974 30.356 1.011 29.414 o
5 1 8 48.800 48.484 1.333 13.060 o
5 1 9 31.992 30.522 1.160 24.757 o
5 1 10 5.548 5.286 0.911 82.491 o
5 1 11 24.992 24.176 2.027 14.243 o
5 2 0 44.249 44.242 0.838 18.989 o
5 2 1 93.172 92.210 1.305 4.703 o
5 2 3 24.037 24.859 0.705 50.401 o
5 2 4 44.340 44.337 0.961 17.895 o
5 2 5 33.097 32.310 0.900 28.705 o
5 2 6 12.695 11.261 0.705 98.511 o
5 2 7 17.388 16.980 0.861 59.623 o
5 2 8 3.000 3.298 0.433 356.521 o
5 2 9 35.937 36.025 1.438 17.552 o
5 2 10 2.510 2.887 0.577 209.892 o
5 2 11 11.371 12.471 1.632 25.076 o
5 3 0 241.318 234.232 2.604 0.743 o
5 3 1 397.482 386.938 3.959 0.276 o
5 3 2 261.367 256.048 2.887 0.628 o
5 3 3 9.818 9.711 0.516 172.802 o
5 3 4 29.246 28.756 0.816 36.016 o
5 3 5 15.818 16.347 0.683 82.905 o
5 3 6 55.842 54.770 1.249 11.222 o
5 3 7 4.192 4.087 0.433 336.335 o
5 3 9 6.981 5.586 0.622 159.235 o
5 3 10 50.840 51.894 1.749 10.021 o
5 3 11 17.664 16.613 1.188 38.310 o
5 4 0 65.255 61.861 1.033 9.529 o
5 4 1 5.357 5.375 0.411 337.169 o
5 4 2 88.173 87.058 1.310 5.186 o
5 4 3 1.020 1.377 0.394 459.149 o
5 4 4 16.371 17.546 0.672 80.606 o
5 4 5 73.541 74.054 1.388 6.858 o
5 4 6 53.550 50.517 1.222 12.318 o
5 4 7 112.639 109.207 1.910 3.095 o
5 4 8 20.717 19.800 0.972 45.052 o
5 4 9 5.169 6.319 0.639 158.347 o
5 4 10 24.990 24.959 1.305 26.858 o
5 4 11 12.212 11.155 0.922 67.409 o
5 5 0 71.747 74.082 1.160 7.463 o
5 5 1 38.305 36.180 0.788 25.252 o
5 5 2 43.758 43.237 0.900 18.920 o
5 5 3 69.219 69.717 1.199 7.969 o
5 5 4 7.156 6.335 0.516 211.557 o
5 5 5 61.515 60.445 1.260 9.614 o
5 5 6 81.852 81.478 1.571 5.536 o
5 5 7 10.143 10.516 0.683 114.111 o
5 5 8 143.585 142.355 2.365 1.898 o
5 5 9 15.608 14.403 1.077 47.349 o
5 5 10 32.175 30.461 1.466 19.370 o
5 6 1 74.050 72.116 1.177 7.281 o
5 6 2 7.101 6.691 0.466 245.550 o
5 6 3 35.002 35.331 0.866 26.726 o
5 6 4 28.353 28.829 0.850 35.957 o
5 6 5 19.758 18.912 0.794 58.689 o
5 6 6 13.218 13.637 0.744 86.431 o
5 6 7 19.764 21.333 0.922 48.131 o
5 6 9 28.042 27.679 1.305 24.602 o
5 6 10 5.838 6.713 0.694 133.571 o
5 6 11 40.309 40.333 1.549 14.526 o
5 7 0 11.906 11.954 0.550 137.045 o
5 7 1 158.296 156.542 1.988 1.666 o
5 7 2 14.655 13.132 0.589 108.925 o
5 7 3 65.818 65.075 1.210 8.729 o
5 7 4 30.756 30.572 0.877 31.939 o
5 7 5 35.522 35.031 0.994 24.341 o
5 7 6 107.281 106.303 1.849 3.354 o
5 7 7 9.557 9.861 0.755 100.677 o
5 7 8 5.356 5.336 0.494 249.681 o
5 7 9 9.685 9.678 0.850 83.071 o
5 7 10 18.449 18.112 1.199 36.672 o
5 7 11 2.214 2.460 0.566 219.688 o
5 8 0 16.413 16.574 0.622 88.528 o
5 8 1 2.809 3.248 0.422 376.718 o
5 8 2 30.364 29.589 0.816 34.372 o
5 8 3 18.564 18.890 0.705 68.848 o
5 8 4 90.679 90.845 1.549 4.678 o
5 8 5 52.984 50.994 1.222 12.395 o
5 8 6 22.633 22.304 0.922 43.713 o
5 8 7 103.137 101.700 1.921 3.544 o
5 8 8 2.688 2.987 0.444 344.898 o
5 8 9 0.620 1.127 0.516 270.153 o
5 8 10 6.225 7.085 0.694 131.708 o
5 9 0 26.170 25.919 0.755 43.836 o
5 9 1 58.843 59.212 1.149 10.578 o
5 9 2 37.923 38.007 0.933 22.923 o
5 9 3 8.963 9.212 0.600 147.750 o
5 9 4 2.043 2.710 0.383 466.712 o
5 9 5 11.853 11.083 0.711 100.648 o
5 9 6 21.215 21.383 0.900 47.361 o
5 9 7 10.288 11.582 0.777 91.930 o
5 9 8 24.751 24.514 1.077 34.015 o
5 9 9 0.634 1.344 0.422 403.305 o
5 9 10 34.579 33.209 1.438 18.470 o
5 10 0 38.024 39.106 0.938 22.475 o
5 10 1 12.430 12.904 0.622 113.325 o
5 10 2 0.693 1.416 0.444 363.887 o
5 10 3 45.160 43.931 1.077 16.675 o
5 10 4 116.514 113.704 1.860 2.934 o
5 10 5 19.913 19.234 0.850 54.106 o
5 10 6 67.727 70.039 1.538 7.373 o
5 10 7 2.007 2.049 0.411 412.449 o
5 10 8 2.050 2.088 0.433 372.090 o
5 10 9 21.335 21.660 1.088 37.784 o
5 11 0 36.778 37.418 0.972 23.218 o
5 11 1 67.053 69.417 1.305 8.032 o
5 11 2 16.409 16.513 0.733 74.848 o
5 11 3 27.358 26.313 0.900 36.777 o
5 11 4 34.872 35.153 1.055 23.692 o
5 11 5 20.409 20.722 0.911 48.315 o
5 11 6 79.145 81.300 1.694 5.569 o
5 11 7 4.345 4.331 0.478 280.361 o
5 11 8 11.276 12.915 0.888 71.524 o
5 11 9 15.713 15.758 0.994 52.389 o
5 11 10 1.221 2.060 0.539 246.221 o
5 12 0 1.719 1.644 0.489 297.180 o
5 12 1 22.151 22.066 0.827 49.502 o
5 12 2 127.956 126.286 1.966 2.442 o
5 12 3 28.361 27.885 0.949 33.429 o
5 12 4 85.269 87.030 1.655 5.011 o
5 12 5 0.390 0.983 0.350 588.247 o
5 12 7 14.473 13.465 0.805 74.915 o
5 12 8 8.518 8.201 0.639 139.056 o
5 12 9 1.095 1.738 0.433 379.965 o
5 12 10 5.547 5.963 0.539 211.819 o
5 13 0 12.660 12.399 0.711 95.663 o
5 13 1 21.257 19.273 0.850 51.853 o
5 13 3 19.171 19.439 0.861 54.404 o
5 13 4 3.609 4.464 0.433 341.665 o
5 13 5 18.126 18.040 0.922 52.817 o
5 13 6 68.247 68.290 1.621 7.217 o
5 13 7 13.984 16.469 0.938 58.855 o
5 13 8 33.121 32.954 1.283 21.398 o
5 13 9 8.468 8.912 0.672 127.048 o
5 14 0 52.942 53.365 1.272 11.881 o
5 14 1 16.174 16.430 0.794 68.880 o
5 14 2 7.271 7.674 0.672 134.304 o
5 14 3 47.623 47.801 1.249 13.995 o
5 14 4 82.685 87.452 1.749 5.048 o
5 14 5 42.089 42.921 1.260 16.303 o
5 14 6 55.353 54.737 1.488 10.274 o
5 14 7 5.569 6.502 0.550 202.530 o
5 14 8 8.575 8.284 0.661 131.322 o
5 14 9 6.854 6.896 0.561 185.721 o
5 15 0 16.886 15.625 0.838 63.821 o
5 15 1 218.830 221.134 2.965 0.848 o
5 15 2 3.208 3.121 0.405 400.977 o
5 15 3 3.209 3.787 0.422 368.101 o
5 15 4 19.817 21.011 0.983 44.799 o
5 15 5 1.418 1.333 0.405 432.030 o
5 15 6 13.655 15.519 0.922 61.652 o
5 15 7 18.288 18.579 1.011 46.431 o
5 15 8 8.322 8.956 0.661 130.970 o
5 15 9 2.062 2.665 0.455 335.628 o
5 16 0 4.465 4.653 0.433 328.535 o
5 16 1 60.293 62.305 1.460 9.008 o
5 16 2 60.242 61.522 1.477 9.017 o
5 16 3 51.377 51.677 1.405 11.708 o
5 16 4 20.946 22.538 1.011 41.253 o
5 16 5 18.966 19.006 0.961 48.397 o
5 16 6 4.964 5.408 0.516 234.678 o
5 16 7 8.941 7.973 0.755 105.086 o
5 16 8 10.973 12.127 0.911 69.942 o
5 17 0 11.582 10.661 0.705 103.458 o
5 17 1 4.397 4.320 0.455 304.302 o
5 17 2 15.062 14.942 0.866 65.246 o
5 17 3 23.799 24.114 1.033 36.650 o
5 17 4 9.077 8.384 0.705 116.363 o
5 17 5 3.087 3.731 0.478 294.748 o
5 17 6 54.669 53.609 1.549 10.215 o
5 17 7 4.361 4.986 0.516 241.203 o
5 17 8 60.276 59.806 1.610 8.685 o
5 18 0 6.543 6.380 0.650 147.918 o
5 18 1 8.642 7.829 0.694 121.958 o
5 18 2 11.303 11.738 0.827 81.032 o
5 18 3 24.832 24.337 1.077 34.021 o
5 18 4 24.579 25.919 1.105 32.656 o
5 18 5 29.959 29.983 1.188 25.495 o
5 18 6 7.943 7.352 0.650 139.804 o
5 18 7 2.565 2.976 0.466 315.575 o
5 19 1 54.108 54.426 1.510 10.415 o
5 19 2 30.802 30.822 1.160 25.352 o
5 19 3 3.979 4.498 0.494 266.269 o
5 19 4 76.492 76.913 1.821 5.725 o
5 19 5 2.939 3.193 0.489 285.504 o
5 19 6 5.332 5.303 0.527 223.732 o
5 20 1 51.987 52.493 1.477 11.132 o
5 20 2 2.132 2.193 0.444 353.282 o
5 20 3 56.364 57.457 1.594 9.460 o
5 20 5 12.966 12.110 0.949 62.519 o
5 21 0 1.233 0.933 0.405 434.697 o
5 21 1 3.836 3.565 0.489 277.027 o
5 21 2 42.227 39.684 1.344 15.993 o
5 21 3 8.320 8.384 0.661 132.197 o
5 21 4 43.626 44.853 1.427 14.145 o
5 21 5 10.116 8.956 0.672 120.206 o
5 22 0 8.818 8.057 0.639 137.971 o
5 22 1 0.668 0.922 0.411 426.003 o
5 22 2 0.955 1.799 0.433 380.554 o
5 22 3 4.552 4.881 0.516 240.119 o
5 22 4 13.766 11.921 0.949 61.494 o
5 23 1 1.779 1.910 0.433 374.944 o
5 23 2 6.062 5.436 0.577 186.447 o
5 23 3 9.521 8.801 0.650 129.429 o
5 24 0 3.422 2.088 0.444 342.065 o
5 24 1 13.795 14.870 0.949 59.305 o
5 24 2 7.066 7.474 0.911 79.327 o
6 0 0 141.066 136.059 1.777 2.128 o
6 0 1 39.938 40.006 0.888 21.768 o
6 0 2 18.786 19.417 0.661 71.669 o
6 0 3 12.316 12.410 0.600 120.227 o
6 0 4 0.613 1.055 0.433 383.597 o
6 0 5 15.804 14.381 0.755 76.680 o
6 0 6 54.724 51.189 1.260 11.785 o
6 0 7 17.235 17.823 0.866 58.682 o
6 0 8 28.206 28.629 1.094 29.263 o
6 0 9 37.254 39.489 1.321 17.914 o
6 0 10 3.849 4.992 0.527 235.810 o
6 0 11 6.334 7.529 0.639 150.755 o
6 1 0 67.899 67.102 1.138 8.457 o
6 1 1 123.107 119.906 1.655 2.743 o
6 1 2 115.724 115.242 1.644 3.028 o
6 1 3 100.704 100.312 1.549 3.921 o
6 1 4 97.833 94.587 1.571 4.176 o
6 1 5 65.966 65.409 1.344 8.342 o
6 1 6 101.041 101.700 1.799 3.708 o
6 1 7 1.830 2.265 0.394 447.420 o
6 1 8 1.068 1.260 0.394 459.217 o
6 1 9 1.043 1.127 0.411 423.702 o
6 1 10 41.883 43.992 1.405 14.910 o
6 1 11 28.948 29.972 1.405 21.688 o
6 2 0 4.699 4.903 0.444 309.846 o
6 2 1 85.447 86.658 1.355 5.346 o
6 2 2 181.652 176.081 2.221 1.287 o
6 2 3 17.654 16.730 0.683 76.627 o
6 2 4 20.717 21.133 0.766 56.624 o
6 2 5 18.058 19.778 0.805 60.319 o
6 2 6 74.371 72.799 1.521 6.595 o
6 2 7 49.116 50.261 1.333 12.772 o
6 2 8 13.899 14.909 0.877 66.271 o
6 2 9 11.211 11.560 0.877 74.299 o
6 2 10 46.275 46.352 1.466 13.031 o
6 2 11 3.148 4.342 0.611 183.985 o
6 3 0 31.730 32.044 0.805 32.058 o
6 3 1 79.624 77.008 1.272 6.314 o
6 3 2 2.857 3.348 0.433 357.860 o
6 3 3 203.640 201.517 2.493 1.011 o
6 3 4 57.377 57.135 1.199 10.882 o
6 3 5 108.344 106.675 1.788 3.344 o
6 3 6 56.763 56.225 1.333 10.550 o
6 3 7 12.464 11.888 0.805 81.510 o
6 3 8 50.374 49.806 1.394 12.180 o
6 3 9 12.751 11.333 0.827 78.290 o
6 3 10 1.218 1.632 0.466 327.973 o
6 4 0 9.460 10.050 0.527 169.678 o
6 4 1 87.680 88.568 1.394 5.086 o
6 4 3 66.909 67.230 1.260 8.300 o
6 4 5 19.995 19.201 0.827 55.541 o
6 4 6 19.297 19.767 0.877 52.784 o
6 4 7 7.865 8.229 0.661 134.461 o
6 4 8 8.416 7.846 0.694 122.749 o
6 4 9 9.471 9.078 0.766 99.663 o
6 4 10 5.838 7.113 0.566 188.803 o
6 5 0 80.262 77.369 1.305 6.193 o
6 5 1 107.263 105.742 1.582 3.514 o
6 5 2 49.514 47.840 1.033 14.854 o
6 5 3 4.329 4.581 0.516 243.007 o
6 5 4 38.499 37.046 1.011 21.824 o
6 5 5 4.242 4.209 0.411 366.617 o
6 5 6 79.518 80.089 1.621 5.691 o
6 5 7 20.544 20.822 0.933 46.782 o
6 5 8 3.320 3.431 0.455 321.095 o
6 5 9 2.608 2.737 0.455 330.989 o
6 5 10 50.950 52.243 1.532 11.064 o
6 6 0 72.862 71.361 1.260 7.309 o
6 6 1 9.891 9.584 0.550 159.216 o
6 6 2 8.980 9.606 0.566 159.032 o
6 6 3 24.210 24.637 0.805 45.513 o
6 6 4 69.329 67.385 1.366 7.736 o
6 6 5 42.349 44.087 1.149 17.039 o
6 6 6 70.579 74.331 1.582 6.766 o
6 6 7 98.114 99.229 1.910 3.799 o
6 6 8 12.275 13.309 0.900 68.103 o
6 6 9 11.379 13.215 0.911 68.389 o
6 6 10 8.482 8.662 0.672 127.497 o
6 7 0 87.165 85.364 1.438 5.182 o
6 7 1 61.295 61.727 1.199 9.738 o
6 7 2 18.421 18.134 0.722 68.625 o
6 7 3 56.752 57.940 1.222 10.838 o
6 7 4 5.322 4.964 0.422 327.169 o
6 7 5 11.071 10.217 0.711 104.846 o
6 7 6 6.958 6.380 0.489 232.235 o
6 7 7 1.588 2.326 0.422 394.215 o
6 7 8 51.969 53.693 1.477 11.022 o
6 7 9 6.851 7.102 0.566 182.114 o
6 7 10 22.116 22.837 1.127 35.045 o
6 8 0 60.607 59.651 1.188 10.076 o
6 8 1 54.646 53.415 1.138 12.131 o
6 8 2 48.327 47.046 1.094 14.954 o
6 8 3 24.024 23.026 0.838 45.386 o
6 8 4 17.525 17.007 0.794 65.258 o
6 8 6 11.597 10.900 0.788 87.484 o
6 8 7 18.704 19.151 0.949 49.347 o
6 8 9 28.121 30.428 1.199 26.178 o
6 8 10 0.932 1.594 0.433 381.190 o
6 9 1 1.638 1.477 0.478 311.652 o
6 9 2 6.443 5.514 0.577 183.923 o
6 9 3 26.567 25.558 0.900 38.049 o
6 9 4 40.978 40.211 1.127 18.538 o
6 9 5 34.069 33.926 1.094 23.846 o
6 9 6 75.742 76.453 1.677 6.042 o
6 9 7 5.262 5.131 0.550 209.363 o
6 9 8 2.713 3.176 0.478 299.943 o
6 9 9 5.245 5.891 0.539 214.318 o
6 9 10 4.093 4.592 0.505 254.525 o
6 10 0 92.430 88.962 1.582 4.601 o
6 10 1 1.000 1.477 0.339 618.777 o
6 10 2 110.430 107.469 1.788 3.258 o
6 10 3 0.897 1.305 0.361 547.965 o
6 10 4 49.805 48.607 1.260 13.243 o
6 10 5 1.980 2.304 0.394 445.415 o
6 10 6 13.075 12.787 0.866 71.065 o
6 10 7 58.548 58.379 1.532 9.300 o
6 10 8 6.673 7.901 0.661 140.088 o
6 10 9 42.119 42.632 1.416 14.936 o
6 11 1 27.484 26.957 0.911 35.939 o
6 11 2 3.181 3.742 0.411 387.030 o
6 11 3 6.562 6.885 0.527 207.302 o
6 11 4 2.282 2.504 0.383 464.711 o
6 11 5 20.767 19.450 0.933 47.397 o
6 11 6 34.423 33.398 1.177 22.401 o
6 11 7 5.103 5.158 0.505 243.530 o
6 11 8 18.602 17.812 1.044 44.549 o
6 11 9 5.929 6.635 0.622 161.752 o
6 12 0 64.526 64.820 1.377 8.487 o
6 12 1 12.827 12.926 0.755 86.850 o
6 12 2 30.295 30.811 1.033 28.481 o
6 12 3 22.565 20.866 0.911 45.283 o
6 12 4 27.900 27.502 1.022 31.901 o
6 12 5 23.794 23.304 1.005 38.143 o
6 12 6 39.265 40.761 1.283 17.412 o
6 12 7 17.236 17.618 1.011 48.223 o
6 12 8 1.366 2.432 0.466 325.342 o
6 12 9 35.728 36.863 1.321 18.958 o
6 13 0 20.877 21.710 0.911 46.984 o
6 13 1 121.365 120.922 2.004 2.647 o
6 13 2 10.413 10.877 0.683 112.352 o
6 13 3 4.170 4.425 0.433 334.302 o
6 13 4 3.855 4.703 0.466 295.494 o
6 13 5 8.829 9.595 0.633 136.025 o
6 13 6 35.355 34.970 1.249 20.490 o
6 13 7 16.945 15.641 0.983 51.712 o
6 13 8 10.420 10.566 0.755 97.177 o
6 13 9 14.922 14.114 0.961 57.238 o
6 14 0 8.889 9.345 0.650 131.064 o
6 14 1 39.297 41.594 1.188 18.271 o
6 14 2 94.133 92.138 1.810 4.221 o
6 14 3 47.705 48.368 1.344 13.271 o
6 14 4 41.357 39.922 1.260 17.058 o
6 14 5 21.741 22.765 1.044 38.811 o
6 14 6 13.691 13.254 0.938 61.719 o
6 14 7 12.592 13.915 0.961 60.653 o
6 14 8 15.413 15.436 0.983 53.838 o
6 15 0 26.896 28.784 1.033 31.878 o
6 15 1 18.476 18.767 0.900 53.314 o
6 15 2 1.203 1.033 0.372 514.681 o
6 15 3 32.012 32.510 1.149 24.402 o
6 15 4 4.020 3.837 0.466 298.287 o
6 15 5 2.084 1.921 0.422 391.658 o
6 15 6 42.261 43.809 1.388 14.973 o
6 15 7 3.005 3.548 0.489 283.711 o
6 15 8 40.824 41.721 1.388 15.688 o
6 16 0 6.824 7.374 0.639 148.897 o
6 16 1 11.007 11.871 0.794 86.822 o
6 16 2 8.212 7.041 0.589 163.055 o
6 16 3 30.667 28.545 1.127 26.839 o
6 16 4 31.137 32.127 1.188 24.245 o
6 16 5 16.823 16.924 1.005 49.501 o
6 16 6 26.498 29.001 1.188 27.846 o
6 16 8 22.523 21.372 1.094 36.632 o
6 17 0 8.259 9.039 0.705 118.075 o
6 17 1 72.170 72.699 1.666 6.529 o
6 17 2 14.455 14.403 0.900 63.442 o
6 17 3 12.362 12.882 0.877 70.966 o
6 17 4 81.873 80.806 1.832 5.203 o
6 17 5 1.658 1.905 0.433 375.850 o
6 17 6 23.426 22.943 1.105 34.773 o
6 17 7 10.793 11.982 0.877 74.678 o
6 18 0 23.100 21.466 1.044 38.126 o
6 18 1 65.689 67.085 1.644 7.499 o
6 18 2 7.064 7.535 0.622 154.024 o
6 18 3 70.684 70.050 1.727 6.659 o
6 18 4 10.074 9.945 0.794 91.522 o
6 18 5 18.317 17.857 1.011 46.816 o
6 18 6 8.269 8.684 0.600 153.281 o
6 18 7 7.161 7.135 0.561 182.761 o
6 19 0 6.080 7.052 0.694 132.239 o
6 19 1 18.108 18.723 0.994 47.578 o
6 19 2 6.399 7.002 0.611 163.538 o
6 19 3 47.268 47.302 1.477 12.627 o
6 19 4 31.725 31.599 1.260 22.733 o
6 19 5 6.348 6.047 0.550 198.602 o
6 19 6 14.875 14.403 0.949 58.074 o
6 20 1 12.512 13.315 0.933 64.033 o
6 20 2 1.391 1.849 0.444 359.555 o
6 20 3 3.785 3.037 0.478 291.723 o
6 20 4 12.390 12.438 0.933 64.891 o
6 21 0 2.591 2.293 0.455 332.969 o
6 21 1 8.972 8.129 0.661 129.957 o
6 21 2 9.903 8.828 0.777 96.565 o
6 21 3 21.348 21.072 1.116 36.850 o
6 21 4 57.293 54.820 1.560 9.652 o
6 22 0 25.139 23.820 1.116 32.671 o
6 22 1 23.718 22.055 1.105 34.899 o
6 22 2 6.011 6.285 0.550 200.165 o
6 22 3 30.269 29.106 1.210 25.095 o
6 23 1 10.612 9.439 0.877 77.303 o
6 23 2 11.926 13.576 1.560 26.967 o
7 0 1 223.040 221.506 2.732 0.841 o
7 0 2 12.239 11.610 0.639 113.470 o
7 0 3 3.703 3.792 0.539 231.611 o
7 0 4 1.857 2.637 0.383 469.838 o
7 0 5 2.712 3.032 0.405 408.739 o
7 0 6 14.225 14.509 0.827 71.613 o
7 0 7 32.380 30.822 1.149 24.670 o
7 0 8 0.948 1.199 0.411 424.030 o
7 0 9 4.001 4.692 0.516 245.057 o
7 1 1 57.696 57.074 1.160 10.975 o
7 1 2 2.072 2.066 0.489 294.462 o
7 1 3 117.988 119.268 1.860 2.814 o
7 1 4 64.738 66.919 1.388 8.289 o
7 1 5 22.616 22.238 0.900 44.875 o
7 1 6 61.289 61.838 1.466 8.881 o
7 1 7 1.086 1.233 0.383 485.827 o
7 1 8 31.942 32.477 1.233 22.913 o
7 1 9 3.869 4.486 0.505 256.729 o
7 1 10 31.860 31.460 1.249 22.902 o
7 2 0 73.197 72.316 1.310 7.126 o
7 2 1 16.697 16.086 0.694 79.184 o
7 2 2 38.386 39.190 0.994 21.536 o
7 2 3 30.641 30.461 0.933 30.725 o
7 2 4 12.620 12.055 0.722 94.378 o
7 2 5 21.549 21.888 0.877 47.763 o
7 2 6 74.583 77.741 1.655 6.122 o
7 2 7 70.423 72.904 1.677 6.656 o
7 2 8 70.992 71.716 1.705 6.601 o
7 2 9 10.041 10.505 0.805 88.928 o
7 2 10 2.854 3.970 0.489 283.259 o
7 3 0 13.390 13.837 0.633 104.580 o
7 3 1 41.110 41.966 1.005 19.397 o
7 3 2 29.051 29.395 0.877 34.128 o
7 3 3 17.640 18.112 0.788 64.328 o
7 3 4 24.410 23.604 0.900 41.713 o
7 3 5 7.915 7.313 0.622 150.285 o
7 3 6 57.199 58.118 1.449 9.845 o
7 3 7 8.296 8.251 0.705 119.309 o
7 3 8 16.623 18.351 0.994 49.627 o
7 3 9 7.195 7.246 0.600 163.550 o
7 3 10 66.407 66.752 1.705 7.286 o
7 4 0 3.617 3.859 0.516 250.765 o
7 4 1 68.974 70.772 1.321 7.673 o
7 4 2 13.800 12.760 0.672 97.917 o
7 4 3 27.213 24.786 0.866 38.958 o
7 4 4 57.477 57.552 1.305 10.409 o
7 4 5 32.587 31.688 1.055 26.139 o
7 4 6 53.849 55.253 1.394 10.920 o
7 4 7 3.404 3.154 0.444 336.604 o
7 4 8 6.259 6.391 0.600 171.089 o
7 4 9 19.538 19.428 1.055 42.133 o
7 4 10 6.709 7.529 0.566 181.633 o
7 5 0 56.152 53.210 1.166 11.687 o
7 5 1 72.606 73.754 1.377 6.989 o
7 5 2 48.629 51.078 1.160 13.841 o
7 5 3 103.867 103.726 1.749 3.588 o
7 5 4 51.456 52.371 1.283 12.267 o
7 5 5 32.119 32.910 1.077 25.610 o
7 5 6 6.321 6.546 0.550 196.988 o
7 5 7 4.692 4.847 0.489 263.465 o
7 5 8 9.465 10.566 0.850 82.632 o
7 5 9 11.991 10.794 0.705 101.785 o
7 6 0 21.997 21.360 0.805 51.615 o
7 6 1 39.087 40.311 1.033 20.423 o
7 6 2 215.010 210.834 2.721 0.906 o
7 6 3 43.650 44.736 1.138 16.555 o
7 6 4 49.059 49.012 1.238 13.521 o
7 6 5 27.630 27.513 1.011 32.446 o
7 6 6 12.886 12.221 0.838 75.528 o
7 6 7 3.019 3.287 0.455 324.781 o
7 6 8 3.585 4.531 0.494 269.453 o
7 6 9 9.626 10.411 0.744 102.033 o
7 6 10 10.386 9.811 0.888 75.785 o
7 7 0 2.230 2.449 0.361 521.410 o
7 7 1 23.279 23.098 0.838 46.410 o
7 7 2 7.800 7.157 0.505 208.633 o
7 7 3 11.738 12.127 0.711 99.254 o
7 7 4 4.896 4.559 0.444 309.513 o
7 7 5 45.880 45.320 1.272 14.672 o
7 7 6 33.036 33.915 1.188 22.783 o
7 7 7 20.668 22.438 1.044 40.029 o
7 7 8 9.448 8.729 0.744 105.083 o
7 7 9 3.242 3.848 0.494 274.900 o
7 8 0 33.987 35.081 1.005 25.093 o
7 8 1 0.894 1.160 0.350 583.578 o
7 8 2 17.775 17.663 0.816 62.054 o
7 8 3 39.174 37.813 1.094 20.230 o
7 8 4 9.434 9.234 0.650 128.838 o
7 8 5 63.992 63.165 1.510 8.293 o
7 8 6 28.546 28.612 1.116 28.468 o
7 8 7 34.535 35.775 1.238 20.836 o
7 8 8 3.822 3.937 0.539 230.477 o
7 8 9 59.347 58.068 1.610 8.928 o
7 9 0 44.632 43.459 1.127 16.529 o
7 9 1 102.413 101.328 1.766 3.683 o
7 9 2 25.194 23.804 0.938 39.073 o
7 9 3 6.223 5.736 0.516 222.542 o
7 9 4 18.046 16.657 0.861 58.737 o
7 9 5 5.327 4.870 0.478 267.318 o
7 9 6 9.885 8.973 0.722 108.465 o
7 9 7 18.475 17.285 1.011 46.965 o
7 9 8 24.301 23.659 1.127 33.007 o
7 10 0 102.378 99.190 1.766 3.728 o
7 10 1 19.772 19.262 0.861 53.557 o
7 10 2 146.901 143.749 2.243 1.865 o
7 10 3 6.240 6.047 0.516 221.019 o
7 10 4 11.244 11.910 0.788 87.096 o
7 10 5 43.913 44.587 1.310 15.043 o
7 10 6 7.598 7.535 0.694 126.234 o
7 10 7 36.617 37.263 1.310 18.690 o
7 10 8 1.996 2.121 0.455 338.043 o
7 10 9 32.129 31.988 1.238 22.842 o
7 11 0 32.153 33.115 1.066 25.741 o
7 11 1 18.684 18.384 0.866 55.704 o
7 11 2 10.796 10.761 0.672 113.716 o
7 11 3 6.516 6.008 0.600 170.736 o
7 11 4 14.343 14.126 0.861 67.977 o
7 11 5 13.496 12.127 0.861 71.564 o
7 11 6 24.593 25.425 1.088 33.392 o
7 11 7 13.761 12.987 0.827 74.263 o
7 11 8 29.418 27.812 1.188 26.438 o
7 11 9 6.337 6.657 0.550 196.471 o
7 12 0 24.076 24.575 0.961 38.983 o
7 12 2 58.537 58.907 1.438 9.608 o
7 12 3 14.616 15.025 0.850 67.773 o
7 12 4 28.525 27.485 1.088 29.589 o
7 12 5 31.020 28.390 1.160 25.937 o
7 12 6 6.941 6.730 0.611 161.426 o
7 12 7 22.748 20.689 1.105 36.283 o
7 12 8 16.542 17.307 1.011 49.231 o
7 13 1 36.899 37.380 1.166 20.439 o
7 13 2 5.742 5.325 0.527 220.415 o
7 13 3 21.076 21.560 0.994 42.454 o
7 13 4 41.257 39.723 1.310 16.622 o
7 13 5 5.218 4.620 0.494 254.457 o
7 13 6 12.604 13.515 0.922 64.918 o
7 13 7 7.675 7.690 0.639 144.242 o
7 13 8 21.353 21.205 1.066 38.951 o
7 14 0 17.917 17.629 0.900 55.077 o
7 14 1 20.881 18.268 0.972 45.787 o
7 14 2 6.225 5.819 0.505 230.184 o
7 14 3 43.742 42.971 1.333 15.143 o
7 14 4 12.323 11.910 0.877 71.934 o
7 14 5 53.618 53.654 1.510 10.567 o
7 14 6 9.665 10.889 0.788 92.392 o
7 14 7 30.069 29.262 1.249 24.352 o
7 14 8 2.641 2.449 0.444 347.869 o
7 15 0 16.452 15.314 0.900 59.324 o
7 15 1 11.803 10.844 0.794 86.119 o
7 15 2 17.838 20.206 0.961 49.087 o
7 15 3 15.083 16.491 0.938 57.197 o
7 15 4 38.445 38.557 1.321 17.657 o
7 15 5 2.552 3.176 0.478 301.138 o
7 15 6 18.369 17.596 1.033 45.566 o
7 15 7 6.703 6.930 0.561 186.656 o
7 16 0 3.012 2.510 0.444 344.064 o
7 16 1 18.373 17.524 0.972 49.416 o
7 16 2 15.780 15.325 0.938 57.027 o
7 16 3 26.547 24.803 1.149 30.249 o
7 16 4 33.865 35.775 1.272 20.631 o
7 16 5 12.959 12.271 0.838 75.320 o
7 16 6 20.554 19.056 1.055 41.297 o
7 17 0 12.400 11.633 0.866 73.466 o
7 17 1 36.675 36.341 1.272 19.349 o
7 17 2 6.734 6.213 0.600 168.990 o
7 17 3 33.902 32.765 1.260 21.450 o
7 17 4 22.505 23.376 1.088 36.000 o
7 17 5 4.115 4.064 0.494 266.957 o
7 17 6 17.009 14.920 0.994 51.285 o
7 18 0 1.606 1.238 0.422 398.220 o
7 18 1 42.456 43.282 1.394 14.945 o
7 18 2 11.067 11.344 0.877 74.760 o
7 18 3 8.466 7.984 0.650 136.056 o
7 18 4 14.939 16.241 0.994 53.062 o
7 18 5 6.901 5.719 0.539 202.402 o
7 18 6 7.910 7.091 0.633 146.611 o
7 19 0 3.104 3.132 0.478 297.066 o
7 19 1 27.785 26.602 1.177 28.075 o
7 19 2 1.348 1.677 0.433 378.670 o
7 19 3 22.740 21.333 1.094 36.460 o
7 19 4 27.125 25.858 1.199 28.143 o
7 19 5 4.774 5.530 0.527 227.151 o
7 20 0 22.994 25.136 1.127 33.445 o
7 20 1 11.389 11.299 0.911 69.938 o
7 20 2 1.121 1.905 0.455 343.756 o
7 20 3 12.928 12.771 0.933 63.813 o
7 20 4 2.774 1.954 0.444 348.904 o
7 21 0 18.023 18.051 1.033 45.697 o
7 21 1 26.844 25.475 1.166 29.346 o
7 21 2 0.918 0.983 0.411 424.749 o
7 21 3 9.623 8.945 0.755 101.796 o
7 22 0 1.101 1.449 0.444 362.125 o
7 22 1 35.087 33.954 1.294 20.173 o
8 0 0 2.484 2.376 0.372 488.854 o
8 0 1 34.515 31.838 0.994 26.003 o
8 0 3 84.412 83.782 1.621 5.212 o
8 0 4 5.587 5.575 0.494 246.231 o
8 0 6 83.281 86.697 1.832 4.932 o
8 0 7 56.949 55.525 1.549 9.695 o
8 0 8 47.382 48.140 1.466 12.581 o
8 0 9 6.690 6.335 0.550 195.069 o
8 1 0 1.298 1.727 0.350 575.404 o
8 1 1 30.152 31.433 0.972 29.791 o
8 1 2 2.390 3.165 0.394 434.156 o
8 1 3 2.084 1.921 0.383 471.597 o
8 1 4 13.388 14.248 0.777 80.264 o
8 1 5 21.301 23.698 0.961 42.600 o
8 1 6 1.944 1.910 0.411 413.757 o
8 1 7 4.916 5.075 0.505 245.548 o
8 1 8 43.873 45.475 1.438 13.917 o
8 1 9 5.607 5.891 0.550 204.407 o
8 2 0 50.881 49.928 1.166 13.355 o
8 2 1 101.735 97.347 1.694 3.843 o
8 2 2 33.631 32.643 1.011 26.009 o
8 2 3 14.316 14.881 0.794 74.998 o
8 2 4 16.365 16.541 0.838 63.945 o
8 2 5 18.190 18.434 0.900 54.017 o
8 2 6 8.839 8.518 0.705 116.963 o
8 2 7 1.171 1.321 0.411 422.356 o
8 2 8 10.591 10.133 0.777 93.045 o
8 2 9 19.355 20.233 1.094 39.976 o
8 3 1 0.798 1.249 0.350 584.071 o
8 3 2 11.491 11.527 0.722 98.928 o
8 3 3 36.044 35.353 1.066 22.805 o
8 3 4 46.302 46.436 1.249 14.556 o
8 3 5 14.465 15.053 0.861 66.850 o
8 3 6 12.230 12.471 0.861 73.701 o
8 3 7 11.913 11.488 0.777 87.746 o
8 3 8 37.220 35.786 1.321 18.600 o
8 3 9 16.116 17.379 1.022 48.937 o
8 4 0 2.142 2.399 0.372 494.331 o
8 4 1 33.336 32.982 1.011 26.092 o
8 4 2 131.101 130.845 2.088 2.290 o
8 4 3 43.512 42.527 1.188 16.548 o
8 4 4 22.997 24.059 0.972 39.971 o
8 4 5 16.387 17.307 0.888 58.726 o
8 4 6 36.652 37.429 1.238 19.574 o
8 4 7 58.826 60.794 1.594 8.871 o
8 4 8 12.011 11.910 0.827 79.283 o
8 4 9 19.862 18.168 1.055 42.444 o
8 5 0 9.966 10.711 0.694 111.723 o
8 5 1 69.567 67.474 1.427 7.565 o
8 5 2 2.899 3.115 0.411 395.476 o
8 5 3 23.004 23.254 0.949 41.392 o
8 5 4 10.695 12.221 0.755 93.986 o
8 5 5 34.588 34.359 1.177 22.081 o
8 5 6 21.636 22.693 1.033 39.438 o
8 5 7 1.354 1.022 0.411 422.138 o
8 5 8 15.063 14.342 0.983 55.012 o
8 6 0 138.355 132.666 2.099 2.131 o
8 6 1 2.387 2.576 0.405 415.984 o
8 6 2 51.760 50.489 1.272 12.475 o
8 6 3 34.421 36.241 1.116 22.656 o
8 6 4 6.373 6.991 0.527 208.439 o
8 6 5 46.570 47.157 1.344 13.710 o
8 6 6 14.862 16.635 0.949 56.478 o
8 6 7 2.920 3.154 0.466 311.929 o
8 6 8 9.220 9.028 0.639 133.729 o
8 6 9 43.192 44.820 1.388 14.577 o
8 7 0 18.470 18.168 0.861 56.673 o
8 7 1 21.967 22.077 0.900 45.851 o
8 7 2 13.848 12.626 0.816 75.894 o
8 7 3 35.265 35.364 1.127 22.272 o
8 7 4 40.053 41.627 1.249 17.331 o
8 7 5 8.668 8.418 0.705 117.732 o
8 7 6 31.480 28.701 1.188 24.998 o
8 7 7 36.834 36.352 1.305 18.851 o
8 7 8 13.361 13.554 0.949 60.895 o
8 7 9 21.274 23.520 1.116 35.887 o
8 8 0 5.871 5.780 0.516 225.418 o
8 8 1 4.566 5.158 0.494 258.050 o
8 8 2 178.580 184.460 2.660 1.230 o
8 8 3 21.228 21.505 0.933 45.445 o
8 8 4 65.815 66.036 1.571 7.730 o
8 8 5 37.203 37.463 1.260 19.058 o
8 8 6 13.304 13.171 0.938 62.365 o
8 8 7 29.743 30.844 1.233 24.450 o
8 8 8 3.267 3.143 0.478 295.691 o
8 8 9 6.480 7.618 0.650 145.582 o
8 9 0 63.876 64.798 1.488 8.266 o
8 9 1 63.160 61.705 1.477 8.596 o
8 9 2 1.840 1.988 0.383 474.291 o
8 9 3 60.181 60.406 1.488 9.069 o
8 9 4 24.745 24.859 1.033 35.432 o
8 9 5 13.827 13.648 0.900 65.156 o
8 9 6 4.717 5.347 0.516 236.946 o
8 9 7 9.862 10.494 0.794 91.367 o
8 9 8 3.246 3.970 0.494 274.404 o
8 10 0 18.565 18.001 0.888 54.576 o
8 10 1 3.776 4.386 0.444 325.067 o
8 10 2 25.200 23.398 0.994 37.127 o
8 10 3 70.436 71.766 1.644 6.777 o
8 10 4 29.713 31.155 1.160 25.893 o
8 10 5 51.204 50.211 1.460 11.593 o
8 10 8 4.244 4.520 0.505 253.590 o
8 11 0 22.355 23.026 0.972 41.254 o
8 11 1 4.311 4.014 0.455 307.098 o
8 11 2 4.994 4.248 0.466 285.503 o
8 11 3 10.831 11.105 0.827 82.760 o
8 11 4 57.414 55.014 1.488 9.908 o
8 11 5 0.579 1.116 0.405 437.658 o
8 11 6 29.126 29.945 1.233 25.018 o
8 11 7 30.685 28.734 1.238 24.396 o
8 11 8 21.713 22.760 1.105 36.282 o
8 12 0 8.954 10.300 0.672 122.219 o
8 12 1 21.149 21.444 0.994 42.437 o
8 12 2 27.032 28.040 1.094 30.325 o
8 12 3 64.142 63.837 1.605 7.964 o
8 12 4 15.332 15.864 0.933 57.769 o
8 12 5 56.558 54.531 1.560 9.788 o
8 12 7 33.415 33.209 1.249 21.750 o
8 13 0 57.079 59.051 1.510 9.555 o
8 13 1 26.622 26.530 1.077 31.689 o
8 13 2 2.830 2.771 0.444 344.572 o
8 13 3 35.220 37.935 1.272 19.614 o
8 13 4 25.618 24.981 1.105 32.214 o
8 13 5 0.944 1.238 0.422 402.135 o
8 13 6 9.145 9.939 0.744 104.184 o
8 13 7 7.778 8.790 0.661 133.642 o
8 14 0 1.571 1.294 0.405 430.986 o
8 14 1 4.535 4.592 0.494 260.938 o
8 14 2 27.819 27.502 1.127 29.056 o
8 14 3 15.058 16.119 0.938 57.511 o
8 14 4 25.366 25.303 1.149 30.902 o
8 14 5 6.731 5.553 0.539 204.367 o
8 14 6 2.624 3.337 0.489 287.221 o
8 14 7 12.049 13.359 0.938 64.111 o
8 15 0 1.792 1.810 0.422 394.660 o
8 15 1 18.951 18.756 0.994 46.543 o
8 15 2 3.575 3.742 0.478 290.460 o
8 15 4 37.530 39.351 1.344 17.583 o
8 15 5 13.055 14.237 0.949 60.844 o
8 15 6 14.673 14.992 0.994 54.191 o
8 16 0 35.179 36.613 1.272 19.901 o
8 16 1 9.069 8.817 0.766 101.102 o
8 16 2 22.174 21.477 1.066 38.054 o
8 16 3 11.394 12.415 0.911 69.019 o
8 16 4 7.703 8.512 0.600 157.041 o
8 16 5 9.928 10.361 0.888 76.097 o
8 16 6 18.712 18.995 1.044 43.805 o
8 17 0 17.012 17.196 0.983 50.627 o
8 17 1 17.461 18.579 1.044 45.359 o
8 17 2 5.030 5.447 0.539 217.487 o
8 17 3 2.441 3.276 0.489 288.666 o
8 17 4 7.051 7.235 0.633 150.355 o
8 17 5 5.471 5.480 0.527 221.953 o
8 18 1 3.584 3.970 0.494 271.752 o
8 18 2 4.172 2.959 0.478 288.596 o
8 18 3 5.333 6.036 0.539 213.139 o
8 19 0 9.643 9.378 0.683 118.295 o
8 19 1 40.720 41.016 1.377 15.931 o
8 19 2 2.221 3.048 0.478 303.918 o
8 19 3 1.428 1.871 0.444 359.267 o
8 20 1 36.143 37.862 1.310 18.756 o
8 20 2 10.501 10.539 0.777 92.748 o
9 0 1 7.314 7.557 0.550 185.925 o
9 0 2 114.714 114.187 2.027 2.902 o
9 0 3 19.846 20.522 0.922 48.577 o
9 0 4 67.237 67.846 1.610 7.374 o
9 0 5 72.532 70.600 1.705 6.513 o
9 0 6 0.386 0.900 0.405 438.768 o
9 0 7 18.745 18.684 1.044 43.935 o
9 0 8 4.016 4.475 0.505 255.604 o
9 1 1 12.578 12.099 0.766 86.936 o
9 1 2 1.322 1.849 0.372 509.349 o
9 1 3 19.639 20.966 0.949 46.919 o
9 1 4 0.928 1.610 0.405 434.484 o
9 1 5 12.667 12.471 0.866 72.150 o
9 1 6 2.684 2.915 0.466 314.869 o
9 1 7 5.642 6.174 0.611 169.425 o
9 1 8 2.353 2.388 0.455 334.478 o
9 2 0 24.074 24.431 0.961 39.064 o
9 2 1 26.827 26.963 1.005 33.548 o
9 2 2 4.859 4.653 0.444 309.377 o
9 2 3 75.654 74.981 1.632 6.186 o
9 2 4 2.978 3.515 0.444 339.268 o
9 2 5 44.711 44.481 1.355 14.475 o
9 2 6 16.887 16.347 0.972 52.136 o
9 2 7 22.006 21.111 1.094 37.198 o
9 2 8 3.089 3.009 0.478 297.671 o
9 3 1 14.434 13.215 0.805 75.296 o
9 3 2 3.190 2.854 0.411 393.277 o
9 3 4 13.877 15.569 0.877 65.709 o
9 3 5 42.070 41.005 1.310 16.151 o
9 3 6 30.599 30.894 1.199 24.653 o
9 3 7 5.270 5.614 0.539 215.149 o
9 3 8 13.204 13.909 0.961 59.798 o
9 4 0 181.336 180.351 2.660 1.225 o
9 4 1 4.815 5.963 0.527 225.183 o
9 4 2 93.332 93.904 1.838 4.192 o
9 4 3 7.818 7.918 0.589 162.784 o
9 4 4 41.444 43.271 1.305 16.042 o
9 4 5 14.104 13.504 0.900 64.807 o
9 4 6 9.898 9.356 0.755 100.424 o
9 4 7 20.678 20.017 1.088 39.124 o
9 4 8 24.433 24.059 1.160 31.660 o
9 5 1 7.571 7.091 0.622 152.592 o
9 5 2 31.677 33.232 1.116 25.024 o
9 5 3 21.576 22.032 1.005 41.111 o
9 5 4 19.411 19.606 0.972 46.777 o
9 5 5 0.617 1.166 0.405 437.383 o
9 5 6 11.435 11.044 0.866 75.874 o
9 5 7 19.258 20.505 1.088 40.209 o
9 5 8 7.653 7.091 0.633 147.841 o
9 6 0 6.070 6.785 0.550 197.938 o
9 6 1 19.747 19.989 0.933 48.408 o
9 6 2 11.140 10.194 0.794 88.576 o
9 6 3 27.216 28.373 1.105 29.765 o
9 6 4 29.553 29.706 1.116 27.435 o
9 6 5 17.348 18.179 1.005 48.117 o
9 6 6 9.398 10.300 0.838 84.851 o
9 6 7 64.221 64.448 1.688 7.688 o
9 6 8 17.720 19.295 1.022 46.004 o
9 7 0 7.633 7.329 0.650 141.218 o
9 7 1 40.941 40.056 1.260 17.180 o
9 7 2 11.856 11.383 0.838 78.592 o
9 7 3 17.283 16.813 0.933 54.148 o
9 7 4 14.427 13.482 0.900 64.274 o
9 7 5 37.883 37.396 1.283 18.532 o
9 7 6 16.532 16.313 0.994 51.010 o
9 7 7 1.076 1.377 0.422 401.086 o
9 7 8 29.682 29.934 1.233 24.723 o
9 8 0 129.390 128.230 2.232 2.305 o
9 8 1 13.722 14.548 0.850 70.035 o
9 8 2 6.613 6.413 0.516 216.078 o
9 8 3 85.383 87.752 1.871 4.733 o
9 8 4 34.026 35.742 1.249 20.903 o
9 8 5 20.510 21.033 1.033 41.432 o
9 8 6 3.388 3.259 0.489 281.894 o
9 8 7 21.673 21.516 1.055 38.993 o
9 8 8 4.471 5.169 0.516 239.622 o
9 9 0 5.246 4.459 0.478 270.387 o
9 9 1 38.288 39.489 1.233 18.572 o
9 9 2 62.611 65.048 1.594 8.107 o
9 9 3 9.077 10.172 0.838 85.633 o
9 9 4 19.349 20.927 1.011 43.882 o
9 9 5 1.541 1.644 0.433 377.554 o
9 9 6 22.317 24.248 1.127 34.324 o
9 9 7 12.157 11.738 0.938 65.164 o
9 10 0 16.638 16.008 0.922 56.596 o
9 10 1 4.589 4.392 0.489 266.608 o
9 10 2 9.267 10.244 0.788 94.194 o
9 10 3 49.634 50.661 1.460 11.866 o
9 10 4 47.264 50.000 1.488 12.265 o
9 10 5 2.712 2.965 0.478 300.733 o
9 10 6 5.501 5.325 0.589 183.802 o
9 10 7 12.739 13.681 0.938 62.831 o
9 11 0 26.452 25.475 1.088 31.896 o
9 11 1 35.475 35.225 1.238 20.543 o
9 11 2 16.400 16.169 0.938 55.487 o
9 11 3 15.792 15.963 0.961 54.730 o
9 11 5 21.276 21.177 1.077 38.541 o
9 11 6 22.976 21.516 1.088 36.399 o
9 11 7 1.312 1.438 0.433 379.585 o
9 12 0 5.618 5.625 0.516 228.268 o
9 12 1 3.670 3.332 0.466 304.302 o
9 12 2 20.040 19.778 1.033 42.583 o
9 12 3 43.642 45.275 1.405 14.262 o
9 12 4 36.422 36.408 1.294 19.143 o
9 12 5 11.340 11.899 0.888 72.307 o
9 12 6 8.183 9.378 0.755 105.242 o
9 13 0 6.726 6.885 0.561 186.652 o
9 13 1 61.289 60.694 1.610 8.495 o
9 13 2 34.889 36.014 1.305 19.676 o
9 13 3 4.508 4.014 0.494 263.759 o
9 13 4 1.192 1.333 0.433 380.533 o
9 13 5 9.457 7.940 0.661 128.277 o
9 13 6 8.446 7.990 0.577 163.376 o
9 14 0 40.650 42.910 1.394 15.513 o
9 14 1 14.111 13.876 0.949 59.569 o
9 14 2 11.642 10.805 0.805 84.768 o
9 14 3 30.962 31.205 1.260 23.198 o
9 14 4 4.609 4.559 0.516 240.934 o
9 14 5 2.225 2.854 0.478 304.537 o
9 15 0 37.601 38.079 1.321 18.042 o
9 15 1 3.999 4.281 0.505 256.512 o
9 15 2 10.357 11.094 0.861 78.679 o
9 15 3 2.525 3.648 0.489 286.824 o
9 15 4 5.333 5.430 0.539 215.359 o
9 15 5 9.549 9.639 0.777 96.432 o
9 16 1 10.071 10.433 0.861 79.857 o
9 16 2 17.192 18.673 1.044 45.597 o
9 16 3 2.160 2.193 0.444 353.060 o
9 16 4 4.944 4.831 0.516 237.197 o
9 17 1 23.465 22.304 1.094 35.423 o
9 17 2 4.323 3.742 0.489 272.030 o
9 17 3 4.898 4.986 0.516 236.941 o
9 18 0 4.819 4.736 0.505 247.854 o
9 18 1 1.396 1.416 0.422 399.034 o
9 18 2 13.177 13.309 0.911 65.349 o
10 0 0 277.668 278.653 3.648 0.532 o
10 0 2 54.978 52.888 1.460 10.625 o
10 0 3 9.226 7.757 0.711 115.470 o
10 0 4 2.841 3.276 0.466 312.083 o
10 0 5 17.820 18.479 1.011 47.033 o
10 0 7 3.295 3.493 0.489 281.703 o
10 1 1 40.648 41.844 1.294 16.638 o
10 1 2 3.963 3.753 0.466 299.302 o
10 1 4 8.904 8.995 0.733 108.927 o
10 1 5 32.428 33.459 1.249 22.152 o
10 1 6 10.139 9.561 0.650 124.894 o
10 1 7 4.916 5.974 0.539 216.406 o
10 2 0 10.039 10.494 0.805 88.946 o
10 2 1 12.692 13.504 0.816 77.523 o
10 2 2 51.313 51.822 1.466 11.383 o
10 2 3 16.185 15.486 0.911 58.651 o
10 2 4 14.940 15.136 0.911 60.950 o
10 2 5 33.354 31.122 1.260 22.077 o
10 2 6 12.343 12.027 0.938 64.670 o
10 2 7 89.961 87.935 1.977 4.369 o
10 3 0 1.400 1.777 0.411 419.105 o
10 3 1 19.224 19.534 0.961 47.721 o
10 3 2 13.562 14.736 0.888 65.850 o
10 3 3 5.224 5.219 0.505 242.175 o
10 3 4 19.656 18.373 1.022 44.354 o
10 3 5 1.089 1.310 0.422 401.194 o
10 3 7 3.646 3.787 0.489 277.690 o
10 4 0 120.634 121.766 2.204 2.575 o
10 4 1 14.301 13.387 0.900 64.570 o
10 4 2 17.107 19.239 0.961 50.697 o
10 4 3 16.361 15.975 0.933 56.136 o
10 4 4 14.002 15.975 0.949 58.200 o
10 4 5 23.280 23.804 1.105 34.540 o
10 4 6 2.070 2.038 0.444 354.364 o
10 4 7 9.189 9.523 0.788 95.283 o
10 5 0 11.722 10.722 0.827 81.225 o
10 5 1 5.889 5.936 0.566 192.269 o
10 5 2 6.370 5.469 0.516 222.419 o
10 5 3 8.619 8.445 0.639 137.996 o
10 5 4 35.001 33.487 1.260 20.802 o
10 5 5 57.996 58.696 1.632 8.991 o
10 5 6 3.526 4.064 0.505 260.950 o
10 5 7 4.721 4.764 0.505 248.584 o
10 6 0 23.994 25.031 1.077 34.434 o
10 6 1 41.759 42.371 1.321 15.930 o
10 6 2 2.515 2.760 0.455 331.676 o
10 6 3 58.500 59.079 1.560 9.155 o
10 6 4 4.870 4.014 0.489 265.738 o
10 6 5 18.563 20.378 1.077 41.483 o
10 6 6 3.468 3.259 0.478 293.515 o
10 6 7 38.134 38.090 1.321 17.849 o
10 7 0 1.109 1.355 0.411 422.640 o
10 7 1 12.047 12.099 0.794 83.949 o
10 7 2 37.791 37.835 1.272 18.619 o
10 7 3 2.289 2.482 0.444 350.820 o
10 7 4 40.919 40.117 1.388 15.899 o
10 7 5 2.633 2.254 0.466 317.815 o
10 7 6 13.602 13.454 0.861 70.063 o
10 7 7 11.918 12.066 0.933 65.893 o
10 8 0 3.510 3.143 0.466 306.710 o
10 8 1 2.120 2.221 0.444 353.269 o
10 8 2 8.020 7.568 0.711 119.841 o
10 8 4 21.611 22.693 1.105 36.398 o
10 8 5 12.260 12.904 0.922 65.950 o
10 8 6 6.246 6.452 0.550 197.872 o
10 9 0 20.787 18.923 1.011 43.396 o
10 9 1 9.018 10.289 0.861 81.971 o
10 9 2 2.423 2.760 0.466 317.492 o
10 9 3 10.742 11.094 0.877 75.579 o
10 9 4 13.697 16.080 0.983 55.665 o
10 9 5 43.187 42.649 1.427 14.549 o
10 9 6 7.169 6.857 0.622 155.192 o
10 10 0 4.337 3.787 0.489 271.703 o
10 10 1 11.313 11.288 0.866 75.872 o
10 10 2 33.000 33.387 1.283 21.356 o
10 10 3 24.996 23.593 1.149 31.780 o
10 10 4 23.355 23.482 1.138 33.415 o
10 10 5 12.813 13.493 0.961 60.639 o
10 10 6 15.680 16.069 0.972 53.935 o
10 11 0 2.054 2.504 0.455 336.282 o
10 11 1 50.889 49.684 1.488 11.556 o
10 11 2 45.406 45.608 1.460 13.360 o
10 11 3 1.754 1.860 0.444 357.248 o
10 11 4 21.134 21.694 1.094 37.710 o
10 11 5 2.282 2.221 0.455 335.648 o
10 12 0 1.082 1.966 0.444 360.942 o
10 12 1 10.853 9.151 0.788 91.590 o
10 12 2 1.594 2.388 0.466 324.208 o
10 12 3 21.291 22.488 1.088 37.455 o
10 12 4 1.147 1.582 0.433 380.105 o
10 12 5 11.120 9.595 0.788 90.352 o
10 13 1 9.615 9.534 0.694 115.225 o
10 13 2 0.549 0.983 0.411 426.344 o
10 13 3 28.777 28.085 1.210 26.221 o
10 13 4 0.885 0.972 0.411 424.937 o
10 14 0 7.418 7.618 0.722 118.555 o
10 14 1 9.776 9.045 0.777 96.613 o
10 14 2 36.590 35.569 1.305 19.095 o
10 14 3 2.134 2.587 0.466 320.184 o
10 14 4 21.389 20.328 1.055 39.844 o
10 15 0 1.318 1.632 0.433 378.983 o
10 15 1 17.243 17.340 1.011 48.379 o
10 15 2 34.918 34.165 1.283 20.361 o
10 15 3 4.145 2.543 0.455 317.147 o
10 16 1 2.360 2.410 0.455 334.337 o
11 0 2 8.832 7.807 0.711 116.722 o
11 0 3 16.987 16.524 0.994 50.310 o
11 0 4 7.861 7.257 0.633 146.447 o
11 0 5 7.932 9.328 0.683 125.036 o
11 0 6 20.510 18.890 1.066 40.874 o
11 1 1 32.451 31.538 1.233 22.893 o
11 1 2 9.854 10.472 0.861 80.230 o
11 1 3 19.519 20.161 1.033 42.932 o
11 1 4 14.020 15.097 0.972 56.840 o
11 1 5 15.265 15.053 1.005 52.540 o
11 1 6 5.221 4.964 0.516 234.395 o
11 2 0 194.627 189.946 2.965 1.065 o
11 2 1 1.582 1.632 0.433 377.319 o
11 2 2 17.689 15.075 0.994 50.337 o
11 2 3 9.522 9.039 0.755 101.950 o
11 2 4 28.778 28.762 1.199 26.280 o
11 2 5 36.029 36.363 1.321 18.939 o
11 2 6 0.465 0.949 0.444 365.285 o
11 3 0 10.749 10.761 0.794 88.845 o
11 3 1 10.153 8.901 0.755 100.344 o
11 3 2 23.278 21.694 1.105 35.413 o
11 3 4 36.350 36.769 1.321 18.742 o
11 3 5 23.101 23.543 1.088 35.417 o
11 3 6 29.145 28.845 1.188 26.294 o
11 4 1 8.241 8.362 0.650 136.217 o
11 4 2 10.977 13.398 0.911 68.897 o
11 4 3 29.844 28.723 1.210 25.437 o
11 4 4 7.595 7.724 0.589 164.727 o
11 4 5 2.428 2.510 0.455 333.410 o
11 4 6 6.690 7.235 0.622 156.630 o
11 5 1 27.641 27.118 1.166 28.288 o
11 5 2 1.082 1.538 0.433 380.570 o
11 5 3 17.566 19.933 1.033 45.165 o
11 5 4 3.654 3.381 0.478 291.363 o
11 5 5 3.725 3.193 0.478 291.571 o
11 6 0 17.265 20.411 1.055 43.958 o
11 6 1 1.746 1.694 0.444 357.846 o
11 6 2 1.822 2.004 0.444 356.290 o
11 6 3 18.070 18.923 1.044 44.525 o
11 6 4 16.006 17.113 0.972 52.799 o
11 6 5 49.033 49.989 1.532 11.641 o
11 7 0 60.435 60.611 1.621 8.575 o
11 7 1 28.305 29.517 1.188 26.592 o
11 7 2 20.692 20.594 1.077 39.355 o
11 7 3 14.115 13.059 0.938 61.226 o
11 7 4 5.354 5.275 0.539 215.770 o
11 7 5 11.843 12.643 0.900 69.411 o
11 8 0 0.439 0.922 0.422 404.730 o
11 8 1 15.210 15.625 0.983 53.979 o
11 8 2 8.766 9.750 0.777 98.314 o
11 8 3 16.419 15.941 1.022 49.419 o
11 8 4 0.973 1.466 0.422 401.400 o
11 9 0 1.165 1.766 0.433 379.489 o
11 9 1 2.776 2.182 0.455 331.908 o
11 9 2 2.190 2.360 0.466 320.578 o
11 9 3 2.616 3.259 0.478 300.355 o
11 9 4 12.959 11.333 0.816 79.392 o
11 10 0 11.246 10.755 0.816 83.977 o
11 10 1 7.575 8.262 0.661 135.608 o
11 10 2 3.230 3.320 0.489 282.871 o
11 10 3 3.796 3.848 0.489 276.169 o
11 10 4 4.122 3.504 0.478 286.537 o
11 11 0 55.959 57.563 1.582 9.557 o
11 11 1 5.486 5.397 0.527 222.161 o
11 11 2 22.193 22.499 1.094 36.429 o
11 11 3 19.163 16.913 1.033 45.069 o
11 12 0 5.324 4.620 0.505 243.957 o
11 12 1 0.751 0.888 0.411 425.732 o
11 12 2 6.723 6.202 0.600 169.081 o
11 13 0 11.590 10.039 0.805 85.804 o
11 13 1 14.322 13.970 0.827 71.983 o
12 0 0 9.980 9.273 0.694 114.350 o
12 0 1 12.171 12.771 0.911 67.453 o
12 0 2 0.839 1.022 0.411 425.038 o
12 0 4 13.041 14.664 0.949 60.553 o
12 1 0 12.956 14.370 0.972 58.779 o
12 1 1 4.894 5.292 0.527 227.145 o
12 1 2 5.484 5.303 0.527 222.548 o
12 1 3 16.861 18.623 1.005 48.434 o
12 1 4 47.099 45.503 1.438 13.129 o
12 2 0 5.265 5.553 0.589 184.454 o
12 2 1 4.660 3.937 0.494 262.759 o
12 2 2 51.588 49.062 1.532 11.241 o
12 2 4 8.036 9.367 0.861 84.592 o
12 3 0 26.862 25.630 1.160 29.436 o
12 3 1 25.783 23.182 1.138 31.710 o
12 3 2 1.188 1.571 0.433 379.910 o
12 3 3 21.238 21.455 1.088 37.963 o
12 3 4 17.607 17.701 1.022 47.037 o
12 4 0 2.262 2.410 0.455 335.088 o
12 4 1 7.780 9.151 0.711 118.006 o
12 4 2 9.513 8.945 0.777 97.426 o
12 4 3 1.186 1.910 0.433 378.946 o
12 5 0 17.916 18.190 1.011 47.089 o
12 5 1 38.514 35.653 1.321 18.150 o
12 5 2 8.193 8.001 0.639 141.072 o
12 5 3 6.764 7.268 0.711 124.377 o
12 6 0 21.190 21.133 1.066 39.139 o
12 6 2 16.262 15.614 1.005 50.978 o
12 6 3 1.044 0.922 0.411 424.258 o
12 7 0 8.049 8.323 0.589 160.138 o
12 7 1 21.901 23.520 1.138 34.525 o
12 7 2 5.190 5.058 0.516 234.255 o
12 8 1 9.537 10.411 0.877 78.350 o
12 8 2 5.833 5.491 0.589 181.541 o
12 9 0 38.499 37.085 1.321 17.898 o
;
_iucr_refine_instructions_details
;
TITL lala_23k_a.res in P2(1)2(1)2(1)
REM Old TITL L-ALA_23K_TONTO_IAM OLEX2: imported from CIF
REM SHELXT solution in P2(1)2(1)2(1)
REM R1 0.066, Rweak 0.027, Alpha 0.005, Orientation as input
REM Formula found by SHELXT: C3 N O2
CELL 0.71073 5.9279 12.2597 5.7939 90 90 90
ZERR 4 0.001 0.0017 0.0009 0 0 0
LATT -1
SYMM 0.5-X,-Y,0.5+Z
SYMM -X,0.5+Y,0.5-Z
SYMM 0.5+X,0.5-Y,-Z
SFAC C N O H
UNIT 12 4 8 1

L.S. 10
PLAN  20
CONF
BOND $H
FMAP 2
list 4
MORE -1
ACTA
WGHT 0.039823 0
FVAR 1.342009
REM <olex2.extras>
REM <HklSrc "%.\\lala_23K.hkl">
REM </olex2.extras>

O001  3     0.44084  0.68405  0.76111  11.00000  0.00734  0.00748  0.00385 =
 -0.00061  0.00053  0.00205
O002  3     0.72676  0.58379  0.62428  11.00000  0.00657  0.00693  0.00576 =
 0.00047 -0.00071  0.00246
N003  2     0.64716  0.63753  0.18295  11.00000  0.00542  0.00590  0.00412 =
 -0.00022  0.00058  0.00012
C004  1     0.55404  0.64078  0.59986  11.00000  0.00471  0.00425  0.00332 =
 -0.00007 -0.00022  0.00039
C005  1     0.46628  0.66107  0.35436  11.00000  0.00499  0.00447  0.00343 =
 0.00013 -0.00043  0.00046
C006  1     0.25984  0.59069  0.30331  11.00000  0.00571  0.00866  0.00587 =
 -0.00044 -0.00058 -0.00126
H005  4     0.42338  0.74732  0.34125  11.00000  0.02729  0.01187  0.02881 =
 0.00590 -0.01005  0.00263
H00a  4     0.70210  0.56012  0.19652  11.00000  0.03117  0.02419  0.02122 =
 -0.00002  0.01295  0.00848
H00d  4     0.19364  0.60995  0.13215  11.00000  0.03420  0.04964  0.01878 =
 0.01101 -0.02349 -0.01332
H00b  4     0.77729  0.68886  0.21115  11.00000  0.02201  0.02617  0.04023 =
 -0.01356  0.00385 -0.00701
H00e  4     0.12478  0.60575  0.42771  11.00000  0.00747  0.05048  0.04351 =
 0.00244  0.01383  0.00225
H00f  4     0.30568  0.50428  0.30971  11.00000  0.04049  0.01796  0.04647 =
 -0.00514 -0.00295 -0.00485
H00c  4     0.58120  0.64912  0.02001  11.00000  0.03564  0.01738  0.01215 =
 -0.00566  0.02163 -0.00671
HKLF 4

END
Q1 1 0.4 0.644444 0.7 11 0.05 0.16
Q2 1 0.5 0.633333 0.55 11 0.05 0.15
Q3 1 0.5 0.722222 0.9 11 0.05 0.15
Q4 1 0.55 0.633333 0.3 11 0.05 0.15
Q5 1 0.25 0.744444 0.3 11 0.05 0.14

  REM The information below was added by Olex2.
  REM
  REM R1 = 0.0193 for 2387 Fo > 4sig(Fo) and 0.0193 for all 2387 data
  REM 118 parameters refined using 0 restraints
  REM Highest difference peak 0.1560, deepest hole -0.1728
  REM Mean Shift 0.0000, Max Shift 0.0004.

  REM +++ Tabular Listing of Refinement Information +++
  REM R1_all = 0.0193
  REM R1_gt = 0.0193
  REM wR_ref = 0.0499
  REM GOOF = 0.8352
  REM Shift_max = 0.0004
  REM Shift_mean = 0.0000
  REM Reflections_all = 2387
  REM Reflections_gt = 2387
  REM Parameters = 118
  REM Hole = -0.1728
  REM Peak = 0.1560
  REM Flack = n/a

  
;
_olex2_submission_special_instructions  'No special instructions were received'
