data_MoCO6_19900
_audit_creation_date               2022-07-17
_audit_creation_method
;
Olex2 1.5-alpha
(compiled 2022.06.10 svn.r3fa896fb for OlexSys, GUI svn.r6535)
;
_audit_contact_author_address      ?
_audit_contact_author_email        ?
_audit_contact_author_name         ''
_audit_contact_author_phone        ?
_publ_contact_author_id_orcid      ?
_publ_section_references
;
Bourhis, L.J., Dolomanov, O.V., Gildea, R.J., Howard, J.A.K., Puschmann, H.
 (2015). Acta Cryst. A71, 59-75.

Dolomanov, O.V., Bourhis, L.J., Gildea, R.J, Howard, J.A.K. & Puschmann, H.
 (2009), J. Appl. Cryst. 42, 339-341.
;
_chemical_formula_moiety           'C6 Mo O6'
_chemical_formula_sum              'C6 Mo O6'
_chemical_formula_weight           263.995
loop_
  _atom_type_symbol
  _atom_type_scat_dispersion_real
  _atom_type_scat_dispersion_imag
  _atom_type_scat_Cromer_Mann_a1
  _atom_type_scat_Cromer_Mann_a2
  _atom_type_scat_Cromer_Mann_a3
  _atom_type_scat_Cromer_Mann_a4
  _atom_type_scat_Cromer_Mann_b1
  _atom_type_scat_Cromer_Mann_b2
  _atom_type_scat_Cromer_Mann_b3
  _atom_type_scat_Cromer_Mann_b4
  _atom_type_scat_Cromer_Mann_c
  _atom_type_scat_source
  _atom_type_scat_dispersion_source
 C 0.00204 0.00120 2.31000 1.02000 1.58860 0.86500 20.84390 10.20750 0.56870
 51.65120 0.21560 'International Tables Volume C Table 6.1.1.4 (pp. 500-502)'
 custom
 Mo -4.58903 0.54363 3.70250 17.23560 12.88760 3.74290 0.27720 1.09580 11.00400
 61.65840 4.38750 'International Tables Volume C Table 6.1.1.4 (pp. 500-502)'
 custom
 O 0.00781 0.00456 3.04850 2.28680 1.54630 0.86700 13.27710 5.70110 0.32390
 32.90890 0.25080 'International Tables Volume C Table 6.1.1.4 (pp. 500-502)'
 custom

_space_group_crystal_system        'orthorhombic'
_space_group_IT_number             62
_space_group_name_H-M_alt          'P n m a'
_space_group_name_Hall             '-P 2ac 2n'
loop_
  _space_group_symop_id
  _space_group_symop_operation_xyz
 1 x,y,z
 2 x+1/2,-y+1/2,-z+1/2
 3 -x,y+1/2,-z
 4 -x+1/2,-y,z+1/2
 5 -x,-y,-z
 6 -x-1/2,y-1/2,z-1/2
 7 x,-y-1/2,z
 8 x-1/2,y,-z-1/2

_symmetry_Int_Tables_number        62
_cell_length_a                     11.82125(12)
_cell_length_b                     11.29740(8)
_cell_length_c                     6.39402(5)
_cell_angle_alpha                  90
_cell_angle_beta                   90
_cell_angle_gamma                  90
_cell_volume                       853.918(12)
_cell_formula_units_Z              4
_cell_measurement_temperature      110.00
_exptl_absorpt_coefficient_mu      1.064
_exptl_crystal_density_diffrn      2.053
_exptl_crystal_F_000               485.896
_diffrn_reflns_av_R_equivalents    0.0338
_diffrn_reflns_av_unetI/netI       0.0108
_diffrn_reflns_Laue_measured_fraction_full  0.9988
_diffrn_reflns_Laue_measured_fraction_max  0.9724
_diffrn_reflns_limit_h_max         16
_diffrn_reflns_limit_h_min         -16
_diffrn_reflns_limit_k_max         16
_diffrn_reflns_limit_k_min         -16
_diffrn_reflns_limit_l_max         9
_diffrn_reflns_limit_l_min         -9
_diffrn_reflns_number              17051
_diffrn_reflns_point_group_measured_fraction_full  0.9988
_diffrn_reflns_point_group_measured_fraction_max  0.9724
_diffrn_reflns_theta_full          21.9515
_diffrn_reflns_theta_max           26.98
_diffrn_reflns_theta_min           3.02
_diffrn_ambient_temperature        110.00
_diffrn_measured_fraction_theta_full  0.9988
_diffrn_measured_fraction_theta_max  0.9724
_diffrn_radiation_type             synchrotron
_diffrn_radiation_wavelength       0.62304
_reflns_Friedel_coverage           0.0
_reflns_limit_h_max                16
_reflns_limit_h_min                0
_reflns_limit_k_max                16
_reflns_limit_k_min                0
_reflns_limit_l_max                9
_reflns_limit_l_min                0
_reflns_number_gt                  1379
_reflns_number_total               1407
_reflns_threshold_expression       I>=2u(I)
_computing_molecular_graphics      'Olex2 1.5-alpha (Dolomanov et al., 2009)'
_computing_publication_material    'Olex2 1.5-alpha (Dolomanov et al., 2009)'
_computing_structure_refinement   
 'olex2.refine 1.5-alpha (Bourhis et al., 2015)'
_refine_diff_density_max           0.5581
_refine_diff_density_min           -0.5765
_refine_diff_density_rms           0.0618
_refine_ls_d_res_high              0.6868
_refine_ls_d_res_low               5.9106
_refine_ls_extinction_coef         0.0072
_refine_ls_extinction_expression   Fc^*^=kFc[1+0.001xFc^2^\l^3^/sin(2\q)]^-1/4^
_refine_ls_goodness_of_fit_ref     1.0417
_refine_ls_hydrogen_treatment      undef
_refine_ls_matrix_type             full
_refine_ls_number_constraints      0
_refine_ls_number_parameters       68
_refine_ls_number_reflns           1407
_refine_ls_number_restraints       0
_refine_ls_R_factor_all            0.0166
_refine_ls_R_factor_gt             0.0163
_refine_ls_restrained_S_all        1.0417
_refine_ls_shift/su_max            -0.0002
_refine_ls_shift/su_mean           0.0000
_refine_ls_structure_factor_coef   Fsqd
_refine_ls_weighting_details      
 'w=1/[\s^2^(Fo^2^)+(0.0313P)^2^+0.1549P] where P=(Fo^2^+2Fc^2^)/3'
_refine_ls_weighting_scheme        calc
_refine_ls_wR_factor_gt            0.0463
_refine_ls_wR_factor_ref           0.0465
_olex2_refinement_description
;
;
loop_
  _atom_site_label
  _atom_site_type_symbol
  _atom_site_fract_x
  _atom_site_fract_y
  _atom_site_fract_z
  _atom_site_U_iso_or_equiv
  _atom_site_adp_type
  _atom_site_occupancy
  _atom_site_site_symmetry_order
  _atom_site_refinement_flags_posn
  _atom_site_refinement_flags_adp
  _atom_site_refinement_flags_occupancy
 Mo01 Mo 0.373687(9) 0.75 0.437470(17) 0.01606(7) Uani 1.000000 2 S T P
 O002 O 0.53535(6) 0.94978(6) 0.24401(14) 0.03032(16) Uani 1.000000 1 . . .
 O003 O 0.52099(9) 0.75 0.85897(16) 0.0305(2) Uani 1.000000 2 S T P
 O004 O 0.22409(9) 0.75 0.01956(17) 0.0324(2) Uani 1.000000 2 S T P
 O005 O 0.21597(6) 0.54709(7) 0.63279(13) 0.03214(17) Uani 1.000000 1 . . .
 C006 C 0.47749(7) 0.87909(8) 0.31207(13) 0.02143(16) Uani 1.000000 1 . . .
 C007 C 0.46921(11) 0.75 0.70873(19) 0.0215(2) Uani 1.000000 2 S T P
 C008 C 0.27728(11) 0.75 0.16792(19) 0.0215(2) Uani 1.000000 2 S T P
 C009 C 0.27120(8) 0.61950(8) 0.56344(12) 0.02174(18) Uani 1.000000 1 . . .

loop_
  _atom_site_aniso_label
  _atom_site_aniso_U_11
  _atom_site_aniso_U_22
  _atom_site_aniso_U_33
  _atom_site_aniso_U_12
  _atom_site_aniso_U_13
  _atom_site_aniso_U_23
 Mo01 0.01740(10) 0.01451(9) 0.01625(9) -0.000000 0.00007(3) 0.000000
 O002 0.0320(4) 0.0265(3) 0.0325(3) -0.0075(3) 0.0039(3) 0.0022(3)
 O003 0.0303(5) 0.0377(5) 0.0235(5) -0.000000 -0.0052(4) 0.000000
 O004 0.0307(5) 0.0426(6) 0.0239(4) -0.000000 -0.0055(4) 0.000000
 O005 0.0303(4) 0.0279(4) 0.0382(4) -0.0057(3) 0.0013(3) 0.0095(3)
 C006 0.0228(4) 0.0199(4) 0.0216(4) 0.0002(3) -0.0007(3) -0.0013(3)
 C007 0.0219(5) 0.0213(5) 0.0212(5) -0.000000 0.0011(4) 0.000000
 C008 0.0214(6) 0.0219(5) 0.0211(5) -0.000000 0.0020(4) 0.000000
 C009 0.0222(4) 0.0206(4) 0.0225(4) 0.0008(3) -0.0008(3) 0.0015(3)

loop_
  _geom_bond_atom_site_label_1
  _geom_bond_atom_site_label_2
  _geom_bond_distance
  _geom_bond_site_symmetry_2
  _geom_bond_publ_flag
 Mo01 C006 2.0678(9) . ?
 Mo01 C006 2.0678(9) 7_575 ?
 Mo01 C007 2.0696(12) . ?
 Mo01 C008 2.0663(13) . ?
 Mo01 C009 2.0713(9) 7_575 ?
 Mo01 C009 2.0713(9) . ?
 O002 C006 1.1379(11) . ?
 O003 C007 1.1391(16) . ?
 O004 C008 1.1380(16) . ?
 O005 C009 1.1366(11) . ?

loop_
  _geom_angle_atom_site_label_1
  _geom_angle_atom_site_label_2
  _geom_angle_atom_site_label_3
  _geom_angle
  _geom_angle_site_symmetry_1
  _geom_angle_site_symmetry_3
  _geom_angle_publ_flag
 C006 Mo01 C006 89.71(5) 7_575 . ?
 C007 Mo01 C006 90.07(3) . 7_575 ?
 C007 Mo01 C006 90.07(3) . . ?
 C008 Mo01 C006 90.22(3) . . ?
 C008 Mo01 C006 90.22(3) . 7_575 ?
 C008 Mo01 C007 179.59(4) . . ?
 C009 Mo01 C006 89.77(4) 7_575 . ?
 C009 Mo01 C006 179.38(3) 7_575 7_575 ?
 C009 Mo01 C006 89.77(4) . 7_575 ?
 C009 Mo01 C006 179.38(3) . . ?
 C009 Mo01 C007 89.61(3) . . ?
 C009 Mo01 C007 89.61(3) 7_575 . ?
 C009 Mo01 C008 90.10(3) 7_575 . ?
 C009 Mo01 C008 90.10(3) . . ?
 C009 Mo01 C009 90.76(5) 7_575 . ?
 O002 C006 Mo01 179.43(8) . . ?
 O003 C007 Mo01 179.44(11) . . ?
 O004 C008 Mo01 179.94(11) . . ?
 O005 C009 Mo01 179.24(8) . 7_575 ?

loop_
  _diffrn_refln_index_h
  _diffrn_refln_index_k
  _diffrn_refln_index_l
  _diffrn_refln_intensity_net
  _diffrn_refln_intensity_u
 0 0 -1 0.1 0.11
 0 0 1 0.06 0.09
 0 0 -1 0.1 0.07
 0 0 1 0.17 0.08
 0 0 -1 0.01 0.05
 0 0 -1 0.22 0.12
 0 0 -2 313.44 4.94
 0 0 2 318.68 4.41
 0 0 -2 306.65 3.74
 0 0 2 316.52 3.87
 0 0 -2 303.65 4.34
 0 0 2 309.63 4.84
 0 0 3 0.56 0.22
 0 0 3 0.3 0.21
 0 0 -3 0.18 0.17
 0 0 -3 0.7 0.25
 0 0 -3 0.97 0.37
 0 0 3 0.03 0.11
 0 0 -4 0.4 0.23
 0 0 4 1.04 0.42
 0 0 -4 1.61 0.53
 0 0 4 1.34 0.42
 0 0 5 -0.02 0.15
 0 0 -5 0.08 0.15
 0 0 -5 0.03 0.16
 0 0 -5 0.04 0.22
 0 0 5 0.28 0.28
 0 0 -5 0.2 0.18
 0 0 6 443.96 8.48
 0 0 -6 416.02 9.18
 0 0 6 429.9 7.54
 0 0 6 427.58 8.74
 0 0 -6 436.23 8.28
 0 0 7 0.07 0.17
 0 0 -7 0.06 0.17
 0 0 7 0.03 0.18
 0 0 8 513.95 9.98
 0 0 -8 437.92 9.73
 0 1 0 0.01 0.03
 0 -1 0 0.02 0.03
 0 1 0 0.1 0.05
 0 1 0 0.07 0.04
 0 -1 -1 1146.01 7.16
 0 1 1 1149.45 6.96
 0 -1 -1 1044.24 5.58
 0 1 1 1129.04 6.24
 0 1 -1 1072.24 5.36
 0 -1 1 1113.31 5.33
 0 1 -1 1076.15 4.84
 0 -1 -1 1146.63 7.29
 0 -1 -1 1160.83 7.28
 0 1 1 1141.98 6.6
 0 1 -1 1095.82 7.11
 0 -1 1 1067.43 6.37
 0 1 -1 1060.78 5.82
 0 1 -1 1116.05 6.61
 0 -1 -2 0.11 0.13
 0 1 -2 0.15 0.15
 0 1 -2 0.17 0.13
 0 1 2 0.12 0.16
 0 -1 2 0.41 0.2
 0 -1 -2 0.12 0.1
 0 1 -2 0.15 0.11
 0 -1 -2 0.03 0.15
 0 -1 2 0.09 0.09
 0 1 2 0.05 0.09
 0 -1 2 0.1 0.11
 0 -1 3 1387.43 9.41
 0 1 3 1403.07 10.53
 0 1 -3 1358.85 9.97
 0 -1 -3 1290.69 9.54
 0 1 -3 1438.77 13.34
 0 -1 3 1360.85 11.8
 0 1 3 1382.37 12.67
 0 -1 -3 1330.51 13.26
 0 -1 -3 1367.7 12.76
 0 1 3 1391.48 11.46
 0 -1 3 1251.51 10.47
 0 1 -3 1478.8 11.62
 0 -1 4 0.15 0.13
 0 1 4 0.04 0.11
 0 -1 -4 0.25 0.21
 0 1 -4 0.2 0.25
 0 -1 -4 0.06 0.14
 0 1 -4 0.13 0.16
 0 1 4 0.53 0.31
 0 1 4 0.29 0.2
 0 1 -4 0.5 0.27
 0 -1 5 1734.77 15.32
 0 1 5 1787.8 15.89
 0 -1 -5 1811.72 18.73
 0 1 -5 1646.58 13.72
 0 -1 -5 1872.88 13.97
 0 1 -5 1758.34 15.41
 0 1 -5 1620.07 17.05
 0 -1 5 1825.52 14.01
 0 1 5 1748.25 17.1
 0 -1 5 1740.96 16.51
 0 -1 -5 1686.09 17.18
 0 1 5 1840.76 14.76
 0 -1 -6 0.03 0.13
 0 1 -6 0.2 0.21
 0 -1 6 0.05 0.16
 0 1 6 0.15 0.18
 0 -1 6 0.03 0.14
 0 -1 6 0.1 0.23
 0 1 6 -0.03 0.23
 0 -1 -6 0.12 0.18
 0 1 -6 0.02 0.17
 0 1 -6 -0.04 0.2
 0 -1 -6 0.07 0.14
 0 -1 -6 -0.04 0.18
 0 -1 7 233.76 6.56
 0 1 7 246.7 6.84
 0 -1 -7 212.5 6.67
 0 1 -7 219.58 6.78
 0 -1 -7 251.39 6.52
 0 1 -7 246.4 6.56
 0 -1 7 241.14 6.6
 0 1 7 236.05 6.47
 0 -1 -7 229.4 7.45
 0 -1 8 -0.03 0.25
 0 1 -8 0.25 0.27
 0 1 -8 0.79 0.41
 0 -1 -8 0.28 0.25
 0 -2 0 6314.1 15.08
 0 -2 0 6247.91 15.52
 0 -2 -1 0.17 0.14
 0 2 -1 0.06 0.12
 0 -2 1 0.1 0.1
 0 -2 -1 0.2 0.14
 0 -2 1 0.25 0.15
 0 -2 -1 0.02 0.1
 0 2 -1 0.1 0.1
 0 2 1 0.04 0.07
 0 2 -1 0.03 0.08
 0 2 1 0.02 0.06
 0 -2 1 0.11 0.09
 0 -2 -2 5066.86 21.41
 0 2 -2 5219.46 18.49
 0 2 2 5332.06 20.62
 0 2 -2 4820.79 22.21
 0 -2 2 4875.99 19.81
 0 -2 -2 5176.46 21.67
 0 -2 -2 4824.24 15.99
 0 -2 2 4887.47 16.16
 0 2 2 4976.93 19.35
 0 -2 2 4920.63 19.6
 0 -2 -2 4940.84 21.24
 0 2 -2 5165.13 19.84
 0 2 2 5219.1 18.49
 0 -2 -3 0.12 0.17
 0 2 3 0.79 0.37
 0 2 -3 0.36 0.22
 0 -2 3 0.12 0.11
 0 2 3 0.3 0.19
 0 -2 3 0.09 0.12
 0 2 -3 0.24 0.21
 0 -2 -3 0.33 0.22
 0 -2 4 0.38 0.24
 0 2 4 0.21 0.19
 0 2 -4 0.44 0.26
 0 2 -4 0.25 0.24
 0 2 4 0.46 0.25
 0 -2 4 1.16 0.32
 0 2 -5 0.22 0.23
 0 2 5 1.05 0.44
 0 -2 5 0.06 0.14
 0 -2 5 0.12 0.16
 0 2 5 0.12 0.14
 0 -2 -5 0.39 0.22
 0 2 -5 0.51 0.27
 0 2 -5 0.34 0.29
 0 -2 -5 0.2 0.24
 0 -2 5 0.4 0.26
 0 2 5 0.16 0.19
 0 2 -6 125.68 4.3
 0 -2 -6 122.49 5.4
 0 2 -6 111.27 4.74
 0 2 6 136.2 4.47
 0 -2 -6 135.34 4.14
 0 2 -6 130.2 4.62
 0 -2 -6 146.76 4.77
 0 2 6 127.9 4.97
 0 -2 6 125.01 4.64
 0 -2 6 129.89 4.54
 0 -2 -6 118.48 4.83
 0 -2 -7 0.09 0.24
 0 -2 -7 0.06 0.2
 0 2 -7 0.03 0.15
 0 -2 -7 0.04 0.26
 0 2 -7 0.24 0.26
 0 2 7 0.27 0.27
 0 2 7 -0.04 0.23
 0 -2 7 -0.03 0.23
 0 2 8 637.32 11.08
 0 2 -8 541.12 10.69
 0 -2 8 591.22 10.45
 0 2 8 645.32 11.15
 0 2 -8 616.32 10.8
 0 -2 -8 592.33 11.18
 0 -2 8 577.83 11.31
 0 -2 -8 598.39 12.22
 0 3 0 0.01 0.07
 0 -3 0 0.05 0.09
 0 3 0 0.01 0.08
 0 -3 -1 6.82 0.69
 0 -3 -1 7.12 0.74
 0 -3 1 5.62 0.57
 0 3 -1 8.46 0.83
 0 -3 1 6.69 0.65
 0 3 1 6.82 0.67
 0 -3 1 7.12 0.73
 0 3 -1 8.64 0.6
 0 3 -1 6.97 0.7
 0 3 1 7.75 0.68
 0 3 1 8.16 0.74
 0 3 -1 7.12 0.71
 0 -3 -1 6.65 0.65
 0 3 2 0.2 0.16
 0 -3 2 0.11 0.12
 0 3 2 0.05 0.1
 0 -3 2 0.1 0.15
 0 3 -2 0.19 0.16
 0 -3 -3 7809.72 32.06
 0 3 -3 7891.93 27.93
 0 -3 3 8031.88 31.12
 0 3 3 7797.14 29.31
 0 -3 -3 7909.13 32.78
 0 -3 3 7929.73 29.69
 0 -3 -3 7839.93 32.56
 0 3 3 7904.97 27.58
 0 -3 -3 7830.16 24.24
 0 3 -3 7833.88 29.48
 0 3 -3 7914.24 33.4
 0 -3 3 7984.21 25.4
 0 -3 4 -0.03 0.25
 0 -3 4 0.31 0.25
 0 3 4 0.39 0.33
 0 -3 -4 0.03 0.1
 0 3 -4 0.11 0.14
 0 -3 -4 -0.03 0.19
 0 -3 -4 0.06 0.16
 0 3 -4 0.16 0.22
 0 -3 4 0.48 0.22
 0 3 4 0.35 0.23
 0 3 -5 1101.99 12
 0 -3 5 1068.9 10.71
 0 -3 5 1126.68 13.81
 0 3 5 1236.35 12.87
 0 -3 -5 1141.54 14.43
 0 3 5 1164.71 13.53
 0 -3 -5 1169.67 11.3
 0 -3 5 1128.68 13.16
 0 3 -5 1127.56 14.64
 0 3 5 1164.4 14.24
 0 3 -5 1173.42 13.51
 0 -3 -5 1178.68 15
 0 3 6 0.14 0.21
 0 3 6 0.06 0.14
 0 -3 -6 0.12 0.16
 0 3 -6 -0.03 0.12
 0 -3 -6 -0.03 0.15
 0 3 -6 0.23 0.23
 0 3 -6 0.19 0.24
 0 -3 -6 0.26 0.26
 0 -3 -6 0.04 0.18
 0 -3 6 -0.03 0.15
 0 3 6 0.04 0.18
 0 -3 6 -0.03 0.19
 0 3 7 204.72 6.42
 0 -3 7 199.62 6.08
 0 -3 -7 213.74 7.02
 0 -3 7 188.11 6.23
 0 -3 -7 203.85 6.43
 0 3 -7 206.54 6.14
 0 -3 -8 0.04 0.22
 0 -3 8 0.11 0.24
 0 -3 -8 -0.04 0.2
 0 3 -8 -0.04 0.23
 0 3 8 0.22 0.27
 0 -3 8 -0.11 0.25
 0 4 0 9064.24 27.18
 0 -4 0 9298.97 25.61
 0 -4 0 9022.93 25.22
 0 4 0 9273.83 24.06
 0 4 0 9134.79 25.93
 0 -4 0 9248.13 26.36
 0 -4 -1 0.26 0.19
 0 4 -1 0.02 0.09
 0 4 1 0.04 0.1
 0 4 -1 0.06 0.09
 0 4 1 0.03 0.1
 0 -4 1 0.48 0.22
 0 -4 -1 0.03 0.1
 0 -4 1 0.02 0.12
 0 4 1 -0.02 0.09
 0 -4 -2 1255.57 11.79
 0 4 -2 1169.53 11.14
 0 -4 2 1190.11 10.83
 0 -4 2 1210.88 10.82
 0 4 2 1223.5 11.11
 0 -4 -2 1233.62 11.8
 0 -4 -2 1189.16 11.1
 0 4 -2 1191.53 11.83
 0 4 -2 1235.96 11.4
 0 4 2 1209.74 10.81
 0 -4 3 0.29 0.21
 0 4 3 0.44 0.29
 0 -4 3 0.51 0.23
 0 -4 -3 0.47 0.29
 0 4 3 0.25 0.21
 0 4 -3 0.15 0.16
 0 -4 -3 0.18 0.23
 0 -4 3 0.3 0.29
 0 4 -3 0.29 0.25
 0 -4 -3 0.13 0.16
 0 4 -3 0.42 0.28
 0 4 -4 1.23 0.46
 0 4 4 0.85 0.35
 0 4 4 1.1 0.4
 0 -4 -4 0.6 0.37
 0 -4 4 0.71 0.39
 0 -4 4 1 0.43
 0 4 4 0.78 0.37
 0 -4 -4 0.92 0.46
 0 -4 -4 0.61 0.34
 0 4 -4 1.07 0.48
 0 -4 -4 0.74 0.29
 0 4 5 0.07 0.2
 0 4 -5 -0.03 0.15
 0 -4 -5 0.54 0.26
 0 4 6 273.92 6.77
 0 4 -6 279.24 6.98
 0 -4 -6 262.92 7.46
 0 4 -6 265.32 6.77
 0 -4 6 257.89 7.12
 0 4 6 289.68 6.71
 0 -4 -6 281.21 7.83
 0 -4 6 264.25 6.78
 0 4 6 258.46 7.21
 0 4 -6 260.15 7.52
 0 -4 7 0.08 0.23
 0 -4 -7 0.35 0.3
 0 4 7 0.45 0.36
 0 -4 7 0.07 0.19
 0 -4 -7 0.18 0.26
 0 4 7 0.44 0.31
 0 4 -7 -0.04 0.11
 0 4 8 120.78 4.92
 0 4 8 114.78 4.9
 0 4 -8 122.18 4.95
 0 4 -8 101.33 4.81
 0 -4 8 107.76 5.04
 0 5 0 0.03 0.08
 0 5 0 0.02 0.11
 0 -5 -1 253.31 4.72
 0 5 -1 280.65 5.34
 0 -5 1 274.71 5.24
 0 5 1 297.18 5.21
 0 -5 -1 273.28 5.48
 0 5 1 283.05 5.44
 0 5 -1 294.21 4.56
 0 5 1 294.72 5.35
 0 -5 1 271.01 5.15
 0 5 -1 283.42 5.54
 0 -5 2 0.3 0.24
 0 -5 -2 0.09 0.16
 0 -5 -2 0.53 0.26
 0 -5 2 0.02 0.14
 0 5 -2 0.07 0.12
 0 -5 2 2.61 0.53
 0 5 -2 0.05 0.12
 0 -5 -2 3.56 0.66
 0 5 2 0.04 0.11
 0 5 2 0.02 0.1
 0 5 -2 0.01 0.09
 0 5 -2 1.5 0.44
 0 -5 -3 1077.38 12.49
 0 -5 -3 1069.57 12.41
 0 5 3 1113.74 11.66
 0 5 -3 1075.63 12.06
 0 5 3 1116.11 10.8
 0 5 -4 1.56 0.51
 0 -5 -4 0.26 0.26
 0 -5 4 0.09 0.19
 0 5 -4 0.03 0.13
 0 -5 4 0.02 0.12
 0 5 4 1.12 0.41
 0 5 4 0.03 0.14
 0 -5 4 0.74 0.35
 0 5 4 0.09 0.17
 0 -5 -4 0.26 0.24
 0 5 -4 0.04 0.18
 0 -5 -4 0.1 0.14
 0 -5 -4 0.4 0.31
 0 5 -5 2873.92 21.73
 0 5 5 2980.23 21.82
 0 -5 -5 3044.96 24.13
 0 -5 -5 2919.97 18.6
 0 5 -5 2910.59 22.39
 0 -5 5 3107.86 19.39
 0 -5 -5 2767.68 23.08
 0 5 5 3097.64 21.39
 0 5 -5 3029.42 25.23
 0 -5 5 2905.49 21.57
 0 5 -6 0.1 0.22
 0 5 6 0.11 0.21
 0 5 6 0.42 0.3
 0 -5 6 0.07 0.29
 0 5 -6 0.07 0.2
 0 5 7 72.06 3.84
 0 5 -7 65.18 3.93
 0 5 7 72.58 3.61
 0 5 -7 68.5 3.63
 0 -5 7 73.03 3.9
 0 5 -8 0.72 0.45
 0 -5 -8 0.04 0.19
 0 -5 -8 0.04 0.19
 0 5 8 0.03 0.19
 0 5 -8 -0.04 0.21
 0 -5 8 0.04 0.25
 0 -6 0 9828.94 33.46
 0 6 0 9903.01 32.47
 0 -6 0 9530.01 31.78
 0 -6 0 9561.31 31.6
 0 6 0 9999 30.7
 0 6 0 9840.18 34.25
 0 -6 1 0.04 0.13
 0 6 1 0.99 0.35
 0 -6 1 0.32 0.21
 0 6 -1 0.71 0.33
 0 6 1 0.02 0.1
 0 -6 -1 0.12 0.14
 0 -6 1 -0.02 0.14
 0 6 -1 1.36 0.46
 0 -6 -1 0.27 0.22
 0 6 1 0.23 0.2
 0 -6 2 750.79 9.68
 0 6 -2 824.67 10.66
 0 -6 2 777.9 10.39
 0 6 2 772.43 10.01
 0 -6 2 805.23 10.17
 0 -6 -2 799.35 10.79
 0 6 2 859.81 9.69
 0 -6 -2 813.08 10.22
 0 6 -2 822.91 10.74
 0 6 2 869.33 10.35
 0 6 3 0.03 0.15
 0 6 -3 0.03 0.15
 0 6 3 0.19 0.18
 0 6 -3 0.03 0.17
 0 6 3 0.3 0.24
 0 6 -3 0.09 0.13
 0 -6 -3 0.09 0.16
 0 6 -3 0.13 0.2
 0 -6 3 0.14 0.22
 0 -6 3 0.53 0.29
 0 6 -4 2.23 0.63
 0 -6 -4 1.54 0.54
 0 6 -4 2.15 0.62
 0 -6 -4 1.88 0.6
 0 6 4 2.41 0.64
 0 -6 4 1.53 0.51
 0 6 -4 2.08 0.66
 0 -6 -4 2.59 0.58
 0 -6 4 2.24 0.64
 0 6 4 1.86 0.55
 0 6 4 2.35 0.6
 0 -6 -5 0.25 0.27
 0 6 -5 0.16 0.26
 0 6 -5 0.91 0.45
 0 -6 5 1.01 0.49
 0 6 5 0.26 0.3
 0 -6 5 0.09 0.19
 0 -6 -5 0.04 0.23
 0 6 5 0.12 0.18
 0 6 -6 204.66 6.24
 0 -6 -6 202.93 6.5
 0 6 6 209.6 5.81
 0 6 6 192.78 5.78
 0 6 -6 189.17 6.21
 0 -6 -6 195.13 6.42
 0 -6 6 188.04 5.72
 0 6 -6 203.64 6.91
 0 6 -7 0.04 0.2
 0 -6 -7 -0.04 0.24
 0 -6 7 0.45 0.31
 0 -6 -8 307.82 8.1
 0 6 -8 327 8.87
 0 -6 -8 330.75 9.19
 0 -6 8 323.03 8.57
 0 -6 8 317.94 7.68
 0 6 8 326.29 8.2
 0 6 8 346.87 8.01
 0 6 -8 346.07 8.36
 0 -7 0 -0.05 0.21
 0 7 0 0.03 0.15
 0 7 0 0.15 0.16
 0 -7 0 0.14 0.19
 0 -7 0 0.1 0.19
 0 -7 1 245.11 5.72
 0 7 1 232.82 5.44
 0 7 -1 247.95 5.11
 0 7 1 243.25 5.42
 0 -7 -1 243.43 5.67
 0 -7 1 223.55 5.11
 0 7 -1 244 5.8
 0 -7 1 250.77 5.74
 0 -7 -1 237.93 5.32
 0 -7 -2 -0.03 0.19
 0 -7 2 0.05 0.16
 0 7 -2 0.15 0.18
 0 7 -2 0.03 0.19
 0 7 2 0.07 0.16
 0 -7 -2 0.03 0.13
 0 -7 2 0.03 0.15
 0 7 2 0.11 0.17
 0 -7 -2 0.11 0.15
 0 -7 2 0.11 0.18
 0 7 2 0.03 0.12
 0 7 -2 0.14 0.16
 0 7 -3 2096.6 20.53
 0 7 -3 2048.06 15.01
 0 -7 -3 2156.98 19.06
 0 -7 -3 2153.33 19.4
 0 -7 3 2051.59 17.48
 0 7 -3 2197.24 19.31
 0 7 3 2256.51 18.22
 0 -7 -3 2119.45 18.43
 0 -7 3 2271.67 18.46
 0 7 3 2225.01 18.53
 0 7 -3 2177.26 19.42
 0 7 3 2397.22 17.4
 0 -7 3 2004.79 18.98
 0 -7 -4 0.22 0.28
 0 -7 4 0.03 0.24
 0 7 4 0.22 0.23
 0 7 -4 0.07 0.13
 0 -7 4 0.03 0.19
 0 7 -4 0.03 0.15
 0 7 -4 0.03 0.19
 0 7 -4 -0.04 0.22
 0 -7 -4 0.07 0.19
 0 -7 5 259.07 7.01
 0 -7 5 249.94 6.57
 0 7 -5 248.81 6.92
 0 7 5 248.18 6.28
 0 7 -5 249.97 6.93
 0 -7 -5 219.77 5.56
 0 -7 -5 231.32 6.89
 0 7 -5 235.18 7.28
 0 -7 -5 255.72 7.37
 0 7 5 249.92 6.43
 0 7 5 250.99 6.95
 0 7 -6 -0.04 0.23
 0 7 6 0.26 0.26
 0 7 -6 -0.04 0.23
 0 -7 -6 -0.04 0.27
 0 -7 -6 1.04 0.48
 0 7 -6 0.54 0.42
 0 -7 6 0.45 0.36
 0 7 6 -0.04 0.21
 0 -7 6 0.38 0.32
 0 7 7 190.01 5.87
 0 -7 -7 191.34 6.44
 0 -7 -7 187.39 6.51
 0 7 -7 206.24 6.48
 0 -7 7 196.09 6.04
 0 7 -7 183.28 6.76
 0 7 7 197.93 6.38
 0 -7 7 191.48 6.4
 0 7 7 194.39 5.81
 0 7 8 0.07 0.23
 0 7 -8 0.08 0.22
 0 7 -8 0.04 0.27
 0 -7 8 0.12 0.26
 0 7 8 0.08 0.25
 0 -7 -8 0.13 0.27
 0 -8 0 3982.15 23.49
 0 -8 0 3933.52 23.41
 0 8 -1 0.7 0.38
 0 -8 -1 0.03 0.15
 0 -8 1 -0.03 0.11
 0 -8 -1 0.08 0.19
 0 -8 1 0.35 0.26
 0 8 1 0.03 0.11
 0 -8 -1 0.41 0.31
 0 8 -1 0.12 0.22
 0 8 1 -0.03 0.16
 0 -8 1 0.11 0.21
 0 -8 2 1486.37 14.96
 0 -8 -2 1464.96 15.91
 0 8 2 1551.04 15.1
 0 8 -2 1530.07 13.38
 0 8 2 1483.82 15.23
 0 8 2 1569.56 14.92
 0 -8 -2 1442.74 16.05
 0 8 -2 1461.42 15.53
 0 8 -2 1463.83 16.19
 0 -8 2 1496.62 15.56
 0 -8 -3 -0.04 0.19
 0 8 3 0.13 0.18
 0 -8 3 0.09 0.2
 0 -8 3 0.17 0.23
 0 8 -3 0.02 0.13
 0 8 -4 3.99 0.91
 0 -8 4 2.38 0.65
 0 8 4 4.47 0.84
 0 8 -4 1.58 0.49
 0 8 4 2.35 0.66
 0 8 -4 2.07 0.66
 0 -8 4 1.99 0.68
 0 -8 -4 1.99 0.66
 0 -8 -4 2.08 0.65
 0 8 -4 1.99 0.69
 0 -8 -4 1.53 0.6
 0 8 -5 0.07 0.19
 0 8 5 -0.03 0.16
 0 -8 -5 0.16 0.21
 0 8 5 0.1 0.18
 0 -8 5 0.03 0.19
 0 8 5 0.03 0.15
 0 -8 5 0.04 0.22
 0 -8 -5 0.04 0.26
 0 8 6 115.29 4.58
 0 8 -6 113.73 4.96
 0 -8 6 100.88 5.04
 0 8 -6 119.92 4.93
 0 -8 -6 110.32 4.91
 0 8 6 104.18 4.83
 0 -8 6 113.17 4.93
 0 8 6 117.71 4.52
 0 8 -6 111.57 5.25
 0 8 7 0.03 0.21
 0 8 7 0.1 0.17
 0 -8 7 0.08 0.31
 0 8 -7 0.04 0.23
 0 8 -7 0.14 0.31
 0 -8 -7 0.17 0.25
 0 8 7 -0.04 0.22
 0 -8 8 625.9 11.87
 0 8 8 546.93 10.41
 0 9 0 0.03 0.15
 0 -9 0 0.06 0.24
 0 9 0 0.14 0.2
 0 -9 0 0.03 0.17
 0 -9 0 0.61 0.38
 0 9 0 0.38 0.25
 0 9 -1 214.33 6.32
 0 -9 1 217.92 6
 0 -9 -1 201.36 5.59
 0 9 1 217.4 5.83
 0 -9 -1 209.54 5.84
 0 -9 1 206.85 5.56
 0 9 1 225.29 6.13
 0 9 -1 209.99 5.99
 0 -9 -1 199.32 6.2
 0 9 1 207.51 5.62
 0 -9 1 214.48 5.95
 0 -9 -2 0.07 0.17
 0 -9 2 -0.03 0.16
 0 9 2 0.18 0.21
 0 9 -2 0.03 0.16
 0 9 2 0.03 0.17
 0 -9 -2 0.42 0.29
 0 -9 2 0.13 0.24
 0 -9 -3 598.48 10.99
 0 -9 -3 646.4 11.36
 0 -9 3 618.63 10.11
 0 -9 -3 627.26 10.76
 0 -9 3 611.33 10.28
 0 9 -3 644.12 9.25
 0 9 3 658.08 10.64
 0 -9 3 584.08 10.5
 0 9 -3 592.76 11.14
 0 9 -3 604.86 10.83
 0 9 3 626.76 9.67
 0 9 3 623.86 10.26
 0 -9 4 0.07 0.22
 0 -9 4 0.73 0.39
 0 -9 -4 0.04 0.2
 0 9 4 0.17 0.26
 0 9 4 0.12 0.22
 0 9 -4 0.19 0.24
 0 -9 -4 -0.04 0.09
 0 9 -4 0.24 0.27
 0 9 4 -0.03 0.18
 0 -9 -4 -0.08 0.28
 0 -9 4 -0.04 0.28
 0 -9 -5 696.29 12.21
 0 -9 -5 742.03 12.99
 0 9 5 642.93 10.75
 0 -9 5 648.7 11.23
 0 -9 -5 632.99 11.44
 0 9 -5 650.75 12.15
 0 -9 5 658.33 12.52
 0 9 -5 681.83 11.95
 0 9 -5 605.35 12.71
 0 -9 5 692.52 11.42
 0 9 5 666.52 11.06
 0 9 5 635.33 10.46
 0 -9 6 0.04 0.2
 0 9 6 0.03 0.18
 0 -9 -6 0.26 0.36
 0 -9 6 0.13 0.31
 0 9 -6 -0.04 0.18
 0 9 -6 0.04 0.21
 0 -9 -6 0.08 0.27
 0 9 -6 -0.05 0.15
 0 -9 6 0.14 0.22
 0 9 6 0.27 0.33
 0 -9 7 103.44 5.27
 0 9 7 124.39 4.75
 0 -9 -7 114.29 5.21
 0 -9 -7 119.5 5
 0 -9 7 117.99 4.78
 0 9 -7 122.43 5.11
 0 9 7 119.95 4.57
 0 -9 7 122.86 5.12
 0 9 -7 117.86 5.43
 0 10 0 4061.02 26.59
 0 -10 0 4099.69 26.47
 0 -10 0 4016.63 27.78
 0 -10 0 4052.74 26.52
 0 -10 -1 1.04 0.44
 0 -10 1 0.1 0.23
 0 10 1 0.48 0.31
 0 -10 -1 0.04 0.15
 0 10 -1 0.08 0.17
 0 10 1 0.07 0.19
 0 10 1 0.73 0.4
 0 10 -1 0.09 0.16
 0 -10 -2 196.7 6.27
 0 -10 2 185.29 5.55
 0 -10 -2 184.28 6.2
 0 -10 2 182.36 5.81
 0 -10 -2 194.76 5.96
 0 10 -2 192.89 5.43
 0 10 2 185.7 5.61
 0 10 2 189.36 5.95
 0 10 -2 190.16 6.45
 0 10 -2 186.12 6.04
 0 10 2 174.26 5.54
 0 -10 2 192.29 5.97
 0 -10 3 0.28 0.28
 0 10 -3 0.04 0.19
 0 10 3 0.15 0.23
 0 10 -3 0.24 0.27
 0 10 3 0.3 0.28
 0 -10 -3 0.32 0.3
 0 10 -3 0.03 0.14
 0 10 3 0.14 0.19
 0 -10 -3 1.15 0.5
 0 -10 3 0.22 0.29
 0 -10 -3 0.04 0.15
 0 -10 4 0.18 0.27
 0 10 -4 0.04 0.22
 0 10 4 0.06 0.22
 0 -10 -4 0.04 0.2
 0 -10 4 -0.04 0.25
 0 -10 -4 0.04 0.2
 0 -10 -4 0.04 0.28
 0 -10 4 0.14 0.29
 0 10 4 0.1 0.23
 0 10 4 0.07 0.22
 0 10 -4 0.04 0.23
 0 10 5 0.2 0.22
 0 -10 5 0.22 0.26
 0 10 5 0.03 0.2
 0 10 -5 0.04 0.26
 0 -10 -5 0.22 0.3
 0 -10 5 0.15 0.27
 0 -10 -5 -0.04 0.25
 0 -10 5 0.26 0.36
 0 -10 6 163.94 5.87
 0 10 -6 159.97 6.28
 0 10 6 161.33 5.42
 0 10 6 138.38 5.39
 0 -10 -6 155.89 5.83
 0 10 -6 175.01 6.11
 0 -10 -6 172.15 6.35
 0 -10 -6 170.36 6.34
 0 -10 6 172.39 5.8
 0 10 6 154.81 5.22
 0 10 -6 151.23 6.23
 0 -10 6 135.23 5.89
 0 10 7 0.24 0.27
 0 -10 -7 -0.04 0.23
 0 -10 7 -0.04 0.26
 0 10 7 0.07 0.23
 0 10 -7 0.05 0.26
 0 -11 0 0.18 0.29
 0 -11 0 0.12 0.29
 0 -11 0 0.14 0.22
 0 11 0 -0.03 0.17
 0 11 0 0.07 0.2
 0 11 0 0.2 0.26
 0 -11 1 82.18 3.91
 0 -11 1 83.45 4.07
 0 11 1 78.35 3.79
 0 11 -1 82.65 4.01
 0 11 1 80.16 3.92
 0 -11 -1 74.19 4.16
 0 11 -1 77.66 3.87
 0 11 -1 77.19 4.22
 0 -11 -1 76.81 3.76
 0 11 1 84.1 3.83
 0 11 -1 89.88 3.92
 0 -11 1 84.04 4
 0 -11 -1 79.24 3.85
 0 -11 -2 0.16 0.26
 0 -11 -2 1.52 0.58
 0 -11 2 0.07 0.25
 0 -11 2 1.48 0.57
 0 -11 -2 0.28 0.35
 0 11 2 -0.07 0.28
 0 11 -2 0.12 0.25
 0 11 -2 0.16 0.19
 0 11 2 0.14 0.2
 0 11 3 1039.75 13.36
 0 11 -3 1048.59 14.85
 0 11 3 1028.13 13.91
 0 -11 -3 1061.99 15.22
 0 -11 -3 1098.37 15.76
 0 -11 3 1056.7 14.04
 0 11 -3 1042.19 15.67
 0 -11 3 1097.27 14.72
 0 -11 -4 -0.04 0.25
 0 -11 4 0.04 0.24
 0 11 4 0.04 0.19
 0 11 -4 -0.04 0.21
 0 -11 4 0.04 0.23
 0 -11 -4 -0.04 0.18
 0 -11 -4 -0.17 0.32
 0 -11 4 0.19 0.33
 0 11 4 0.11 0.23
 0 -11 5 770.94 12.64
 0 11 -5 777.6 13.4
 0 11 -5 741.9 12.67
 0 11 5 746.01 11.99
 0 -11 -5 802.31 13.46
 0 11 5 695.03 11.33
 0 -11 5 754.72 12.27
 0 -11 -5 721.3 12.69
 0 -11 -5 848.86 14.39
 0 -11 5 686.24 12.52
 0 11 -6 0.08 0.18
 0 11 6 0.1 0.2
 0 11 6 0.2 0.25
 0 -11 6 0.11 0.21
 0 11 6 0.23 0.24
 0 -11 -6 0.08 0.21
 0 -11 6 0.04 0.22
 0 -11 -6 0.13 0.3
 0 -11 -6 -0.05 0.31
 0 12 0 392.21 8.52
 0 -12 0 371.64 8.78
 0 12 0 348.18 8.28
 0 -12 0 353.19 9.23
 0 -12 0 369.83 9
 0 -12 0 375.44 8.84
 0 12 0 378.36 8.81
 0 -12 -1 0.04 0.19
 0 -12 1 0.04 0.25
 0 12 -1 -0.03 0.16
 0 12 1 0.04 0.14
 0 -12 -1 0.21 0.28
 0 -12 1 0.04 0.19
 0 12 -1 0.22 0.33
 0 12 1 0.26 0.29
 0 12 -1 0.19 0.23
 0 -12 -1 0.13 0.19
 0 12 1 0.04 0.18
 0 -12 1 0.16 0.24
 0 -12 -2 553.32 11.24
 0 -12 2 526.83 10.18
 0 -12 -2 512.37 11.06
 0 -12 2 525.75 10.4
 0 -12 -2 529.16 10.48
 0 12 2 507.18 9.91
 0 12 -2 531.39 11.21
 0 -12 2 544.57 10.68
 0 12 2 527.95 10.09
 0 12 -2 512.22 10.49
 0 -12 3 1.98 0.66
 0 12 3 0.04 0.21
 0 12 -3 0.92 0.49
 0 12 -3 -0.04 0.2
 0 -12 3 -0.04 0.3
 0 12 3 0.59 0.36
 0 -12 -3 0.21 0.29
 0 -12 -3 0.04 0.21
 0 -12 3 2.04 0.7
 0 -12 4 0.31 0.34
 0 -12 -4 0.4 0.39
 0 12 4 1.8 0.64
 0 -12 4 0.29 0.34
 0 12 4 0.11 0.23
 0 12 -4 0.17 0.28
 0 12 -4 0.86 0.49
 0 -12 -4 0.29 0.31
 0 -12 4 1.26 0.53
 0 12 -5 0.5 0.39
 0 12 -5 0.13 0.25
 0 -12 -5 -0.05 0.32
 0 -12 -5 0.04 0.19
 0 -12 -5 0.18 0.24
 0 12 5 0.07 0.14
 0 -12 -6 59.29 3.75
 0 -12 -6 61.47 3.95
 0 12 -6 57.65 3.77
 0 12 6 50.9 3.22
 0 -12 6 56.81 3.65
 0 12 6 56.36 3.16
 0 13 0 0.15 0.26
 0 -13 0 0.04 0.24
 0 -13 0 -0.04 0.18
 0 13 0 0.2 0.25
 0 -13 0 0.23 0.28
 0 13 0 0.9 0.54
 0 -13 0 -0.09 0.3
 0 13 -1 31.65 2.84
 0 -13 1 34.27 2.7
 0 -13 -1 34.13 2.69
 0 13 -1 32.54 2.67
 0 13 1 30.2 2.48
 0 -13 -1 22.35 2.4
 0 13 1 31.23 2.52
 0 -13 1 32.61 2.76
 0 13 -1 33.1 2.71
 0 13 1 32.43 2.56
 0 -13 1 34.21 2.74
 0 -13 -1 36.04 3.01
 0 -13 -2 0.04 0.24
 0 13 -2 0.09 0.25
 0 13 2 0.3 0.31
 0 13 -2 -0.04 0.18
 0 13 -2 0.08 0.24
 0 -13 -2 0.08 0.23
 0 -13 2 0.87 0.46
 0 -13 2 -0.04 0.27
 0 13 2 0.54 0.38
 0 -13 3 786.75 13.23
 0 13 -3 786.77 13.96
 0 13 3 827.08 12.97
 0 13 -3 809.18 13.59
 0 13 3 803.91 12.86
 0 -13 3 789.57 13.1
 0 -13 -3 832.63 14.32
 0 -13 -3 811.85 13.94
 0 -13 4 0.04 0.23
 0 -13 -4 0.17 0.26
 0 13 4 0.07 0.22
 0 -13 -4 0.54 0.42
 0 -13 4 0.04 0.25
 0 -13 -5 213.12 7.14
 0 13 -5 202.12 6.71
 0 13 -5 184.72 6.8
 0 -13 5 212.12 6.71
 0 -13 5 216.07 7.02
 0 13 5 198.24 6.18
 0 -13 -5 204.48 6.74
 0 13 5 194.84 6.14
 0 14 0 1328.67 16.96
 0 -14 0 1301.1 18.11
 0 14 -1 -0.05 0.26
 0 14 1 -0.04 0.19
 0 14 -1 0.16 0.26
 0 14 1 0.04 0.18
 0 14 -1 0.04 0.21
 0 14 1 -0.04 0.22
 0 14 2 177.44 6.14
 0 -14 2 180.31 6.44
 0 -14 -2 187.65 6.62
 0 -14 2 181.39 6.23
 0 -14 -2 183.69 6.6
 0 14 -2 179.26 6.72
 0 14 -2 171.89 6.19
 0 14 2 187.24 6.29
 0 14 -2 193.02 6.72
 0 14 3 0.08 0.2
 0 14 -3 0.04 0.24
 0 14 -3 -0.05 0.21
 0 -14 -3 0.05 0.2
 0 -14 3 0.92 0.5
 0 14 3 -0.04 0.19
 0 -14 3 0.64 0.43
 0 -14 -3 0.23 0.31
 0 14 4 0.56 0.37
 0 -14 4 0.39 0.4
 0 -14 -4 0.46 0.41
 0 14 -4 0.19 0.36
 0 14 -4 0.35 0.34
 0 14 4 0.37 0.3
 0 -14 4 0.3 0.34
 0 -14 -4 0.7 0.42
 0 -15 0 0.05 0.28
 0 15 0 0.04 0.22
 0 -15 0 0.46 0.4
 0 15 0 0.36 0.35
 0 15 1 88.79 4.34
 0 15 -1 94.97 4.61
 0 -15 -1 90.75 4.93
 0 -15 -1 96.49 4.79
 0 -15 1 96.23 4.76
 0 15 -1 91.03 4.48
 0 -15 1 88.58 4.71
 0 15 2 0.23 0.29
 0 15 -2 0.1 0.25
 0 -15 -2 0.09 0.26
 0 15 2 0.04 0.16
 0 15 -2 -0.04 0.22
 0 -15 3 87.96 4.59
 0 -15 3 87.07 4.39
 0 -15 -3 97.86 4.89
 0 15 3 82.18 4.15
 0 15 -3 85.71 4.41
 0 16 0 734.06 13.15
 0 -16 0 845.37 14.01
 0 -16 1 0.19 0.34
 0 -16 1 0.13 0.33
 0 -16 -1 -0.04 0.3
 0 16 -1 0.21 0.32
 0 -16 2 94.14 4.6
 0 -16 -2 83.64 4.52
 0 -16 2 86.84 4.69
 1 0 1 2906.47 10.88
 1 0 -1 2774.91 8.2
 1 0 -1 2784.82 11.3
 1 0 1 2889.61 10.08
 1 0 -1 2869.73 8.49
 -1 0 1 2802.14 8.3
 -1 0 1 2863.7 8.43
 -1 0 1 3060.4 12.25
 -1 0 -1 3041.14 11.43
 1 0 -1 3130.18 12.12
 1 0 -1 2798.67 11.53
 -1 0 -1 3046.1 10.47
 -1 0 -2 355.63 4.56
 -1 0 -2 344.3 5.08
 1 0 -2 330.97 5.33
 1 0 2 357.66 4.52
 1 0 -2 336.94 5.6
 -1 0 -2 348.1 5.5
 1 0 2 361.98 5.01
 -1 0 2 326.65 5.25
 1 0 -2 393.27 4.5
 1 0 2 347.75 4.78
 -1 0 2 319.01 4.05
 1 0 -3 366.05 4.46
 -1 0 -3 340.09 6.2
 1 0 -3 344.14 6.41
 -1 0 3 350.7 4.52
 1 0 3 358 5.32
 1 0 -3 358.07 6.84
 1 0 3 346.45 5.97
 -1 0 3 339.78 6.31
 1 0 -3 359.26 5.34
 1 0 3 322.11 5.46
 -1 0 3 328.32 5.13
 -1 0 -4 870.93 9.26
 1 0 -4 918.69 8.31
 1 0 -4 790.21 11.67
 -1 0 -4 792.22 11.51
 1 0 4 861.88 9.38
 -1 0 4 826.56 8.42
 -1 0 -4 830.14 10.92
 1 0 4 849.99 10.26
 -1 0 4 843.34 9.58
 1 0 4 851.46 10.56
 -1 0 -4 915.98 10.5
 1 0 -4 882.48 9.71
 1 0 -5 0.74 0.28
 -1 0 -5 0.49 0.26
 1 0 5 0.49 0.29
 -1 0 5 0.42 0.27
 1 0 5 0.61 0.33
 -1 0 5 0.42 0.31
 -1 0 -5 0.41 0.28
 1 0 -5 0.7 0.42
 1 0 5 0.33 0.22
 -1 0 5 0.45 0.25
 -1 0 -5 0.36 0.25
 1 0 -5 0.32 0.25
 -1 0 -5 1.59 0.57
 -1 0 -6 272.45 7.21
 1 0 6 276.88 6.79
 -1 0 6 279.86 6.64
 -1 0 -6 260.82 7.76
 -1 0 -6 293.96 6.32
 1 0 -6 262.95 5.73
 1 0 6 308.54 6.58
 -1 0 6 269.96 5.74
 1 0 -6 271 7.61
 1 0 -6 278.75 6.47
 -1 0 6 291.74 7.52
 1 0 6 294.09 7.1
 -1 0 7 666.84 10.88
 1 0 7 644.86 10.82
 1 0 7 612.34 10.56
 -1 0 7 632.16 11.05
 1 0 -7 545.18 10.63
 -1 0 -7 540.06 10.32
 1 0 -7 687.72 10.9
 -1 0 -7 685.64 10.77
 -1 0 8 22.11 2.07
 1 0 8 19.74 1.93
 1 0 -8 20.25 2.1
 -1 0 -8 18.51 2.01
 -1 0 -8 23.17 2.01
 -1 0 -9 132.49 5.25
 -1 1 0 0.05 0.05
 1 -1 0 0.09 0.07
 1 -1 0 0.26 0.09
 1 1 0 0.06 0.07
 1 -1 0 0.14 0.18
 1 -1 0 0.02 0.04
 -1 1 0 0.06 0.05
 -1 -1 0 0.19 0.08
 -1 1 0 0.04 0.05
 -1 -1 0 0.01 0.05
 1 1 0 0.1 0.07
 -1 1 -1 3084.97 11.89
 1 1 -1 3206.36 12.68
 -1 1 -1 3195.37 11.32
 -1 -1 -1 3163.39 11.7
 1 -1 -1 3100.39 12.45
 -1 -1 1 3069.49 11.07
 1 -1 1 3140.27 11.24
 1 -1 -1 2951.95 12.22
 -1 1 1 3140.71 11.08
 1 -1 1 3176.75 12.26
 1 -1 -1 2966.78 11.59
 -1 -1 -1 3090.33 12.09
 1 -1 1 3119.41 11.3
 1 1 -1 3053.54 10.66
 1 1 1 3061.96 11.35
 -1 -1 -1 3304.55 11.36
 1 1 1 3064.58 12.16
 1 1 1 3039.9 11.85
 -1 1 -1 3109.15 11.32
 -1 1 -2 2997.3 14.87
 1 -1 -2 3020.38 16.24
 -1 -1 -2 3046.6 15.53
 -1 -1 2 2794.59 14.76
 1 -1 2 2955.28 14.31
 1 -1 -2 2927.01 16.04
 1 1 2 2931.59 14.97
 -1 1 2 3052.96 17.41
 -1 1 2 2899.94 13.48
 1 1 2 3062.8 14.75
 1 -1 2 2937.54 14.21
 -1 -1 2 2714.66 11.43
 -1 1 -2 2831.63 13.19
 -1 -1 -2 2720.47 12.8
 -1 1 -2 2816.66 15.79
 1 -1 -2 2892.68 15.99
 -1 -1 -2 2847.64 15.94
 1 1 2 3020.84 13.94
 -1 1 2 3078.55 12.34
 1 1 -2 2900.57 13.34
 1 1 -2 3015.11 16.48
 -1 1 -2 3008.78 15.66
 1 1 -2 3012.76 11.58
 1 -1 2 2877.68 12.86
 1 1 3 62.91 2.5
 -1 -1 3 51.89 2.02
 1 -1 -3 63.47 2.25
 -1 1 -3 70.43 2.67
 -1 -1 -3 63.71 2.73
 1 -1 -3 60.24 2.73
 1 1 3 69.76 2.73
 -1 -1 3 60.82 2.62
 1 -1 3 62.28 2.49
 1 1 -3 61.68 2.76
 -1 1 -3 63.03 2.75
 1 -1 -3 62.65 1.9
 -1 -1 -3 63.22 2.22
 1 1 -3 63.48 2.05
 -1 1 3 59.59 2.75
 -1 1 3 60.38 2.08
 -1 -1 3 57.39 1.65
 -1 -1 -3 61.56 2.77
 -1 1 -3 63.04 2.86
 1 -1 -3 63.75 2.92
 1 -1 3 63.35 2.18
 -1 -1 -4 912.36 11.38
 1 -1 4 888.12 10.76
 1 1 4 944.13 11.27
 -1 1 -4 992.81 10.12
 1 -1 -4 991.75 8.4
 -1 -1 -4 942.76 9.73
 -1 1 -4 946.58 11.96
 -1 -1 4 925.48 8.11
 1 1 4 991.56 10.25
 -1 -1 4 886.79 9.72
 1 1 4 969.03 10.9
 1 -1 4 947.43 10.78
 -1 1 4 893.23 10.35
 -1 1 -4 982.61 10.99
 1 1 -4 936.55 10.43
 1 -1 -4 923.09 10.07
 1 -1 -4 961.72 12.5
 1 -1 4 922.25 9.63
 -1 -1 -5 402.08 8.3
 1 -1 -5 359.98 8.15
 -1 -1 5 400.02 8.01
 -1 1 5 410.01 8.41
 1 1 5 422 8.18
 1 -1 5 401.05 7.73
 -1 -1 -5 423.76 6.85
 -1 1 -5 394.24 6.84
 1 -1 -5 404.65 6.15
 1 1 -5 420.84 6.7
 1 -1 -5 379.12 8.86
 -1 -1 -5 399.33 8.85
 -1 -1 -5 455.15 8.03
 -1 1 -5 396.76 7.49
 1 -1 -5 418.7 7.29
 1 1 -5 392.95 7.32
 1 -1 5 394.93 7.58
 -1 1 5 393.63 7.42
 1 1 5 406.87 7.66
 -1 -1 5 370.87 7.08
 -1 1 5 412.35 6.8
 1 1 5 419.87 7.26
 1 1 -5 346.87 7.95
 -1 1 -5 369.01 7.99
 1 -1 5 412.8 6.98
 -1 1 6 161.74 5.63
 1 1 6 169.53 5.49
 1 -1 6 159.05 5.14
 -1 -1 6 151.61 5.23
 -1 1 6 158.18 4.5
 1 1 6 166.98 4.96
 -1 -1 -6 152.85 4.48
 1 -1 -6 168.3 4.34
 -1 1 -6 155.49 4.6
 1 1 -6 137.91 5.4
 -1 1 -6 147.33 5.37
 -1 -1 -6 146.13 5.28
 1 -1 -6 141.19 5.3
 1 1 -6 154.21 4.61
 -1 1 -6 166.26 5.12
 -1 -1 -6 183.39 5.35
 1 -1 -6 175.81 5.16
 1 1 -6 181.37 5.38
 -1 -1 6 154.82 4.88
 1 -1 6 158.79 5.2
 -1 1 6 153.93 4.97
 -1 -1 -6 142.88 5.63
 1 -1 -6 155.69 5.94
 1 1 -7 495.42 10.32
 -1 1 -7 486.75 10.01
 -1 -1 -7 526.87 11.11
 1 -1 -7 512.75 10.44
 1 -1 7 543.69 10.03
 -1 1 7 533.19 9.48
 1 1 7 557.83 10.01
 -1 1 7 524.37 10.21
 -1 -1 7 517.31 9.87
 1 1 7 535.93 9.81
 1 -1 7 510 9.5
 1 -1 -7 571.98 9.71
 -1 -1 -7 578.12 9.77
 -1 1 -7 488.11 9.09
 1 1 -7 510.56 9.53
 -1 1 -8 14.41 1.62
 -1 -1 8 14.55 1.68
 -1 1 8 12.85 1.59
 1 -1 8 12.72 1.54
 1 1 8 12.75 1.57
 1 1 -8 12.85 1.67
 1 -1 -8 10.7 1.52
 -1 1 -8 11.82 1.57
 -1 -1 -8 12.45 1.65
 1 1 8 15.15 1.74
 -1 1 -9 120.38 5.05
 1 1 9 143.15 5.08
 1 -2 0 0.04 0.07
 1 2 0 0.09 0.07
 -1 -2 0 0.2 0.08
 -1 2 0 0.1 0.09
 -1 2 0 0.15 0.1
 -1 -2 0 0.04 0.09
 1 2 0 0.03 0.08
 1 2 0 0.08 0.08
 1 -2 0 0.31 0.14
 1 -2 1 2502.33 11.48
 -1 2 -1 2468.45 12.09
 1 2 -1 2363.97 12.25
 -1 -2 1 2365.63 10.57
 -1 -2 -1 2444.23 11.97
 1 -2 -1 2498.51 12.04
 -1 -2 -1 2500.23 10.93
 1 -2 -1 2471.7 12.53
 1 2 -1 2475.56 11.23
 -1 2 -1 2458.2 11.3
 1 -2 1 2396.59 11.85
 -1 -2 1 2327.25 10.22
 1 -2 -1 2446.15 11.04
 1 2 1 2402.41 11.47
 -1 -2 -1 2449.9 11.61
 1 -2 1 2471.58 11.92
 1 2 1 2611.13 12.04
 1 2 -1 2351.37 11.33
 -1 2 -1 2414.57 11.66
 1 2 1 2478.44 11.57
 -1 2 1 2357.8 8.51
 1 -2 -1 2585.34 8.86
 -1 2 1 2509.73 11.45
 -1 2 -2 1969.56 12.18
 -1 2 -2 2006.4 13.43
 1 2 -2 1944.68 13.82
 -1 -2 -2 1886.81 12.86
 1 -2 -2 1872.46 13.35
 -1 -2 2 1845 11.84
 1 -2 2 1862.1 12.17
 1 -2 -2 1917.55 13.2
 1 2 -2 1980.26 11.41
 -1 2 2 1899.74 11.11
 1 2 2 2100.31 13.36
 1 -2 2 1986.02 13.33
 -1 -2 -2 2042.99 13.5
 1 -2 -2 1903.25 12.99
 1 2 2 1967.38 12.48
 1 2 -2 1950.23 12.18
 -1 2 2 2129.21 12.79
 1 -2 -2 1750.63 8.68
 -1 -2 -2 2035.49 11.49
 1 -2 2 1863.94 11.18
 1 2 2 1860.54 11.72
 -1 2 -2 1949.05 11.63
 -1 -2 -3 386.9 6.75
 1 -2 -3 377.45 6.93
 1 -2 3 378.03 6.29
 -1 -2 3 354.23 6.1
 1 -2 -3 357.93 6.86
 -1 2 3 374.55 7.2
 1 2 3 397.26 6.88
 1 -2 3 385.6 6.68
 1 -2 -3 380.62 6.92
 -1 -2 -3 405.37 7.34
 1 2 -3 379.79 6.13
 -1 2 3 390.56 5.74
 1 2 3 392.6 5.97
 1 2 -3 390.22 5.64
 -1 2 -3 382.61 6.95
 1 2 -3 371.89 7.06
 -1 2 -3 397.23 6.34
 -1 2 3 378.03 6.09
 1 2 3 380.9 6.33
 -1 -2 -3 374.21 5.53
 1 -2 3 387.81 5.56
 -1 -2 3 366.17 4.21
 1 -2 -3 360.64 4.42
 -1 2 -3 396.57 5.88
 1 2 -4 1286.92 11.12
 -1 -2 -4 1362.96 15.01
 1 2 -4 1284.17 12.65
 -1 2 4 1341.14 12.77
 1 2 4 1269.05 12.45
 1 -2 4 1235.59 12.12
 1 -2 -4 1266.29 14.16
 1 2 -4 1250.63 14.38
 -1 2 -4 1354.52 14.49
 1 -2 4 1262.64 11.2
 -1 -2 4 1246.68 9.13
 -1 2 -4 1339.52 12.91
 1 2 4 1346.22 12.26
 -1 2 4 1354.15 11.59
 -1 -2 4 1302.44 13.1
 1 2 4 1289.23 13.67
 -1 2 -4 1298.85 11.87
 -1 -2 -4 1286.24 11.36
 1 -2 -4 1301.23 9.78
 1 2 -5 31.34 1.9
 1 -2 -5 30.02 2.49
 -1 -2 -5 32.14 2.53
 1 2 -5 30.73 2.13
 -1 2 5 29.52 2.04
 1 2 5 31.42 2.16
 -1 -2 5 30.32 1.99
 1 -2 -5 30.92 2.42
 -1 -2 -5 28.8 2.27
 -1 2 -5 30.13 2.33
 1 2 -5 32.76 2.49
 -1 -2 5 31.87 1.66
 1 -2 5 31.78 1.94
 1 -2 5 30.59 2.13
 -1 2 5 30.97 2.36
 -1 -2 5 29.89 2.15
 1 2 5 32.16 2.3
 -1 2 -5 30.28 2.09
 1 -2 -5 35.84 2.13
 -1 -2 -5 29.07 1.83
 -1 2 -5 33.19 2.02
 1 -2 -5 29.05 1.61
 -1 2 5 33.73 2.03
 1 2 -6 77.27 3.58
 1 2 -6 70.24 3.17
 1 -2 6 81.94 3.71
 -1 2 6 76.23 3.51
 -1 -2 6 81.31 3.58
 1 2 6 81.87 3.76
 1 2 6 87.3 3.63
 -1 2 6 84.44 3.47
 1 2 -6 73.06 3.88
 -1 2 -6 76.33 3.48
 1 -2 -6 94.99 3.78
 -1 -2 -6 96.4 3.9
 -1 2 6 77.83 3.89
 1 2 6 85.23 3.94
 1 -2 6 79.54 3.66
 -1 -2 6 75.82 3.7
 1 -2 -6 75.53 4.13
 -1 -2 -6 81.61 4.31
 -1 -2 -6 77.03 3.79
 1 -2 -6 77.43 3.96
 -1 -2 -6 79.89 3.21
 -1 2 -6 78.25 3.34
 1 -2 7 498.76 9.89
 -1 -2 -7 584.38 9.98
 1 -2 -7 518.45 11.33
 -1 -2 -7 512.13 10.9
 -1 -2 7 506.98 9.69
 1 2 7 504.95 9.84
 -1 2 7 524.44 10.47
 1 -2 7 496.54 9.39
 -1 2 -7 474.99 9.86
 1 2 -7 428.32 9.53
 -1 -2 -7 511.19 10.13
 1 -2 -7 461.58 9.84
 1 -2 7 534.59 10.04
 1 2 7 495.56 9.46
 -1 2 7 528.07 9.94
 1 2 -7 511.52 9.65
 1 2 8 6.21 1.09
 1 -2 8 5.91 1.07
 -1 -2 8 6.76 1.14
 -1 2 8 5.34 1.08
 1 2 -8 4.39 0.98
 -1 2 -8 5.54 1.08
 1 -2 8 5.69 1.08
 -1 -2 -8 6.03 1.24
 1 2 8 5.54 1.04
 -1 -2 -8 6.91 1.22
 1 -2 -8 5.76 1.12
 -1 -3 0 0.17 0.13
 1 -3 0 0.2 0.12
 -1 -3 0 0.21 0.13
 1 -3 0 0.07 0.11
 1 3 0 0.04 0.11
 -1 3 0 0.13 0.11
 1 3 0 0.18 0.13
 -1 3 0 0.05 0.09
 1 3 0 0.29 0.12
 -1 -3 0 0.07 0.08
 1 -3 0 0.38 0.19
 -1 3 0 0.3 0.14
 -1 -3 1 2.34 0.38
 1 -3 1 1.67 0.36
 1 3 -1 1.94 0.41
 -1 3 -1 1.73 0.38
 1 -3 1 1.83 0.37
 -1 -3 -1 2.01 0.42
 1 -3 -1 2.39 0.44
 -1 -3 -1 2.22 0.37
 1 -3 -1 1.63 0.35
 1 3 -1 1.7 0.36
 -1 3 1 2.58 0.4
 1 -3 1 1.94 0.37
 -1 -3 1 1.95 0.33
 -1 3 -1 2.07 0.34
 1 3 1 2.42 0.41
 -1 3 1 1.85 0.38
 1 -3 1 2.4 0.4
 -1 -3 1 1.47 0.35
 -1 3 1 2.96 0.38
 1 3 1 1.98 0.38
 -1 -3 -1 2.64 0.43
 1 -3 -1 1.85 0.34
 1 3 1 2.18 0.39
 -1 3 -1 2.61 0.44
 1 3 -1 1.88 0.37
 1 3 -2 906.67 8.76
 -1 3 2 962.87 8.68
 -1 -3 2 857.12 8.59
 1 3 2 949.34 9.27
 1 -3 -2 880.45 9.07
 -1 -3 -2 906.99 9.41
 -1 3 2 929.67 7.35
 1 3 2 928.19 8.4
 -1 3 -2 905.59 9.08
 1 -3 2 905.61 8.94
 1 3 -2 973.86 10.24
 -1 3 -2 893.97 9.55
 1 -3 2 848.58 8.7
 -1 -3 -2 928.89 9.25
 1 3 -3 413.85 7.81
 -1 3 -3 408.44 7.46
 1 -3 -3 406.83 7.37
 -1 -3 -3 386.7 6.99
 -1 -3 3 395.67 6.61
 1 -3 3 399.39 6.7
 1 -3 -3 428.78 7.59
 -1 3 3 435.34 7.17
 1 3 3 438 7.52
 -1 3 3 426.21 6.85
 1 -3 3 413.78 7.23
 -1 -3 3 391.52 6.65
 1 3 3 412.37 6.79
 -1 3 -3 423.33 6.94
 1 -3 -3 398.37 7.37
 -1 -3 -3 422.17 7.38
 1 3 3 423.91 6.54
 -1 3 3 429.61 6.41
 -1 3 -3 430.79 6.61
 1 3 -3 405 6.33
 -1 -3 -3 415.42 6.08
 1 -3 -3 380.35 4.86
 1 -3 3 414.32 6.15
 -1 -3 3 409 4.79
 1 3 -3 421.01 6.93
 1 3 -4 1752.37 14.38
 1 3 4 1837.1 14.54
 -1 3 4 1807.32 14.41
 -1 3 -4 1764.92 15.34
 -1 3 4 1930.83 18.87
 1 -3 4 1718.35 16
 -1 -3 -4 1767.98 17.04
 1 -3 -4 1643.52 16.74
 1 3 4 1921.2 15.81
 1 3 -4 1718.85 17.58
 -1 -3 -4 1740.26 16.24
 1 -3 -4 1738.3 17.14
 1 -3 4 1745.61 15.25
 -1 -3 4 1731.21 15.09
 -1 -3 -4 1719.58 13.32
 1 -3 -4 1699.16 11.34
 -1 3 -4 1804.31 14.59
 -1 -3 4 1828.84 11.5
 1 -3 4 1722.37 13.57
 -1 3 -5 138.42 4.37
 1 3 -5 142.52 4.38
 1 3 -5 139 4.65
 -1 3 5 142.68 5.14
 1 -3 5 131.13 4.77
 -1 3 5 134.49 4.51
 1 3 5 137.43 4.45
 1 3 5 153.51 4.53
 -1 3 5 147.2 4.34
 1 -3 -5 142.17 5.27
 -1 -3 -5 138.01 5.04
 -1 -3 -5 139.84 4.98
 1 -3 -5 138.88 5.08
 -1 -3 5 132.9 4.51
 1 -3 5 138.06 4.65
 1 3 5 144.51 5.02
 -1 -3 -5 138.73 4.04
 1 -3 -5 140.19 3.58
 -1 3 -5 143.53 4.73
 1 3 -5 136.04 5.12
 -1 3 -5 133.42 4.95
 -1 -3 5 136.57 3.51
 1 -3 5 139.13 4.14
 1 3 -6 89.12 4.32
 -1 3 -6 87.21 4.18
 1 3 6 98.85 4.03
 -1 3 6 98.86 4.04
 -1 3 -6 103.51 4.02
 1 3 -6 99.67 3.95
 1 -3 6 91.22 4.19
 -1 -3 -6 94.38 4.36
 1 -3 -6 90.71 4.21
 -1 3 6 99.52 3.89
 1 3 6 115.18 4.2
 1 3 -6 101.59 4.17
 -1 3 -6 103.39 4.22
 -1 -3 6 100.41 4.13
 -1 3 6 98.26 4.42
 1 3 6 103.04 4.39
 1 -3 6 92.69 4
 1 -3 -6 102.82 4.97
 -1 -3 -6 97.11 4.68
 -1 -3 -6 111.01 3.9
 1 -3 -6 106.77 3.99
 -1 3 7 380.98 8.25
 1 3 7 401.86 8.64
 -1 3 -7 369.55 7.79
 -1 -3 7 371.51 8.31
 1 3 7 372.42 8.53
 -1 3 7 378.39 8.77
 1 -3 7 363.63 8.11
 1 -3 -7 374.76 9.34
 -1 -3 -7 377.87 9.31
 -1 3 -7 343.08 8.47
 1 3 -7 339 8.59
 1 -3 -7 346.94 8.73
 -1 -3 -7 364.48 8.65
 -1 3 -7 372.02 8.15
 1 3 -7 379.05 8.57
 -1 -3 7 368.03 8.76
 1 -3 7 367.37 8.53
 -1 -3 8 3.91 0.94
 1 -3 8 4.81 0.99
 1 3 8 4.59 0.95
 1 -3 8 3.9 0.86
 -1 3 8 5.49 1.08
 -1 -3 8 4.62 0.97
 1 3 8 5.56 1.03
 1 -3 -8 3.91 0.94
 -1 -3 -8 5.05 1.04
 -1 -3 -8 4.24 1.01
 1 3 -8 4.49 0.98
 -1 3 -8 4.44 0.93
 1 3 -8 4.4 1.01
 -1 3 -8 6.35 1.2
 1 -4 0 0.07 0.13
 -1 -4 0 0.17 0.13
 1 4 0 0.13 0.12
 1 -4 0 0.24 0.14
 -1 -4 0 0.14 0.15
 -1 -4 0 0.14 0.13
 1 -4 0 0.08 0.14
 1 4 0 0.25 0.17
 1 4 0 0.43 0.22
 1 4 0 0.13 0.12
 -1 4 0 0.27 0.16
 1 -4 1 812.41 8.03
 -1 -4 1 784.03 7.01
 -1 4 -1 812.63 8.24
 1 4 -1 780.56 8.44
 -1 4 1 902.33 8.3
 -1 -4 1 817.85 7.71
 -1 4 1 851.47 7.33
 1 -4 1 870.6 8.28
 1 -4 -1 830.51 8.69
 -1 -4 -1 865.84 8.11
 1 4 -1 821.83 6.17
 1 4 1 842.9 8.31
 -1 4 -1 797.18 7.47
 1 -4 -1 820.02 8.77
 1 -4 -1 817.59 7.65
 -1 4 2 373.78 5.22
 -1 4 -2 422.21 6.7
 1 4 -2 423.1 6.74
 1 -4 2 412.06 6.5
 -1 4 -2 396.28 6.79
 1 4 -2 410.7 7.08
 1 -4 -2 416.16 6.8
 -1 -4 -2 431.06 7.02
 1 -4 -2 425.24 7
 1 -4 2 382.65 6.43
 -1 -4 2 420.1 7.36
 1 4 2 505.96 7.1
 1 4 -2 423.63 6.58
 -1 4 -2 452.86 6.7
 1 -4 -2 417.72 6.58
 -1 -4 -2 424.18 6.69
 1 4 -2 413.63 4.57
 -1 -4 2 389.66 6.02
 -1 4 2 417.16 6.47
 1 4 2 414.61 6.45
 -1 4 2 439.48 6.44
 -1 -4 3 937.17 10.55
 1 -4 3 922.45 10.47
 1 -4 -3 937.02 11.51
 -1 -4 -3 1000.52 11.54
 1 4 -3 967.99 10.72
 -1 4 -3 912.12 10.26
 1 4 -3 975.92 11.15
 -1 4 -3 951.88 10.88
 1 4 3 1000.32 10.66
 -1 -4 3 889.53 10.52
 1 -4 3 942.58 11.17
 1 -4 -3 971.61 11.46
 -1 -4 -3 998.18 11.66
 1 4 3 1016.67 10.82
 1 4 3 1014.38 10.59
 1 4 -3 948.41 12.24
 -1 4 -3 990.24 11.99
 -1 -4 -3 1168.77 11.06
 1 -4 -3 924.87 8.37
 1 -4 -3 929.63 11.32
 -1 -4 -3 958.6 11.35
 1 -4 3 970.1 10.03
 -1 4 3 1043.94 11.18
 1 -4 -4 1964.31 18.25
 -1 4 4 1816.94 17.66
 1 4 4 1995.16 18.49
 -1 4 -4 1842.62 16.25
 1 4 -4 1839.25 16.47
 -1 -4 4 1753.29 16.14
 1 -4 4 1912 17.4
 1 4 4 1867.97 15.78
 -1 4 4 1994.77 16.54
 -1 4 -4 1946.01 18.49
 1 4 -4 1863.47 18.47
 1 -4 -4 1897.88 17.62
 -1 -4 -4 1934.4 17.88
 -1 4 4 1930.31 15.51
 1 4 4 1938.53 15.52
 1 -4 4 1791.19 15.83
 -1 -4 4 1892.75 16.28
 1 4 -4 1850.92 15.84
 1 -4 -4 1795.32 16.92
 -1 -4 -4 1837.09 17.21
 1 -4 4 1971.37 15.3
 -1 -4 4 1614.95 11.97
 -1 -4 -4 1800.76 14.36
 1 4 5 128.16 4.78
 -1 -4 -5 134.35 3.99
 1 -4 -5 121.52 3.39
 -1 4 -5 118.73 4.83
 -1 -4 5 114.54 4.52
 -1 4 5 129.82 4.44
 1 4 5 126.1 4.41
 1 -4 -5 121.85 4.8
 1 4 5 138.35 4.37
 -1 4 5 131.12 4.3
 -1 -4 5 123.61 3.47
 1 -4 5 124.95 3.96
 1 -4 5 122.82 4.43
 -1 4 -5 119.74 4.14
 1 4 -5 122.12 4.31
 1 -4 -5 128.1 4.94
 1 4 -5 120.31 4.46
 -1 4 -5 117.93 4.35
 -1 4 6 323.88 8.03
 1 4 -6 312.63 8.31
 -1 4 -6 306.08 8.15
 -1 4 6 348.05 7.39
 -1 4 -6 331.74 7.59
 1 4 -6 345.29 7.88
 1 -4 6 327.49 7.55
 -1 -4 6 335.77 7.69
 1 4 6 332.15 7.98
 -1 -4 -6 333.63 8.43
 1 -4 -6 317.08 8.32
 -1 4 6 329.25 7.61
 1 4 6 322.68 7.38
 1 4 -6 311.47 7.39
 -1 -4 6 314.55 7.91
 1 -4 6 318.11 7.94
 -1 -4 -6 332.82 6.75
 -1 -4 -6 332.28 8.16
 1 -4 -6 319.99 8.24
 -1 4 7 342.09 7.89
 1 4 7 355.7 7.94
 -1 4 -7 334.63 7.68
 1 4 -7 353.55 8.23
 -1 4 -7 353.13 8.03
 -1 4 -7 329.74 8.52
 1 4 -7 323.21 8.67
 1 4 7 368.95 7.9
 -1 -4 7 351.22 8.09
 1 -4 7 344.51 7.93
 -1 4 7 345.21 8.34
 1 4 7 350.91 8.3
 1 -4 7 346.75 8.52
 -1 -4 7 342.72 8.44
 -1 -4 -7 353.89 8.89
 1 -4 -7 339.47 8.32
 -1 -4 -7 350.19 8.39
 1 -4 -8 10.42 1.6
 -1 -4 -8 9.62 1.46
 -1 4 -8 11.2 1.48
 1 4 -8 10.88 1.5
 -1 -4 8 10.45 1.51
 1 4 8 10.78 1.45
 -1 4 8 10.97 1.5
 1 4 8 11.18 1.45
 -1 4 8 10.21 1.4
 -1 4 -8 9.29 1.46
 -1 -5 0 0.17 0.15
 -1 -5 0 -0.03 0.13
 1 -5 0 0.02 0.14
 1 5 0 0.25 0.19
 1 5 0 0.06 0.14
 -1 5 0 -0.02 0.12
 -1 -5 0 0.12 0.15
 1 -5 0 0.03 0.12
 -1 5 0 0.02 0.1
 1 -5 1 1088.78 10.39
 -1 -5 1 1156.53 10.14
 1 -5 -1 1178.81 11.45
 -1 -5 -1 1109.64 11.31
 1 5 -1 1212.92 11.69
 -1 5 -1 1162.23 11.07
 1 5 -1 1177.55 8.61
 1 5 1 1032.91 9.81
 -1 5 1 1180.43 10.77
 1 5 1 1200.11 11.03
 -1 -5 1 1068.38 8.85
 1 -5 1 1086.56 10.14
 -1 5 -1 1162.53 10.9
 1 5 -1 1109.55 11.06
 1 -5 -1 1105.99 10.97
 -1 -5 -1 1206.02 10.64
 -1 -5 -1 1118.66 10.21
 -1 -5 1 1141.76 11.15
 -1 5 1 1215.05 9.83
 1 5 1 1239.77 11.38
 1 5 -2 975.51 11.8
 -1 5 -2 1005.36 11.99
 1 -5 -2 961.24 10.46
 -1 5 -2 974.87 10.79
 1 5 -2 953.55 11.01
 -1 -5 -2 929.64 10.84
 1 -5 -2 959.03 11.06
 1 -5 -2 960.64 11.31
 -1 -5 -2 1017.08 10.9
 -1 -5 2 899.18 9.46
 1 -5 2 915.42 10.21
 -1 5 2 1020.14 9.1
 -1 -5 -2 973.38 10.65
 1 5 -2 991.05 7.77
 -1 -5 2 952.95 9.93
 1 -5 2 885.03 10.31
 1 -5 2 966.73 10.82
 -1 -5 2 876.05 11.04
 1 5 2 975.71 10.51
 -1 5 2 990.89 10.49
 -1 5 2 1043.47 10.83
 1 5 2 954.28 10.5
 1 5 -2 950.66 10.9
 -1 5 -2 999.07 10.87
 -1 -5 3 7.25 0.96
 1 -5 3 9.34 1.16
 -1 5 3 7.76 0.97
 1 -5 -3 7.5 1.03
 -1 -5 3 7.69 0.99
 1 -5 3 7.64 0.99
 1 5 3 8.42 0.98
 1 5 -3 6.32 0.71
 -1 5 -3 6.89 1.06
 -1 5 -3 8.11 1.04
 -1 -5 4 1440.92 14.36
 1 -5 4 1441.7 14.55
 1 -5 -4 1503.16 16.32
 -1 5 4 1417.34 14.54
 1 5 4 1454.06 15.43
 1 -5 -4 1388.75 11.45
 -1 -5 -4 1506.54 13.45
 1 -5 4 1480.75 15.52
 -1 -5 4 1453.66 15.16
 -1 5 4 1583.02 15.19
 1 5 4 1545.71 14.84
 1 5 -4 1526.59 17.1
 -1 5 -4 1487.19 16.55
 -1 -5 -4 1511.96 15.82
 1 -5 -4 1396.11 15.46
 -1 5 4 1512.53 14.38
 1 5 4 1519.39 14.22
 -1 5 -4 1489.9 15.13
 1 5 -4 1481.53 15.29
 -1 -5 -4 1418.57 15.59
 1 -5 -4 1392.38 15.52
 1 -5 4 1347.06 13.61
 -1 5 -4 1372.38 14.18
 1 5 -4 1510.75 15.17
 -1 5 5 260.33 7.35
 1 5 5 293.4 7.49
 -1 -5 -5 252.3 5.7
 1 -5 -5 267.85 5.34
 -1 -5 5 262.33 6.94
 1 -5 5 269.5 7.05
 1 5 5 281.81 6.7
 -1 5 -5 276.95 7.54
 1 5 -5 281.86 7.79
 -1 -5 -5 282.74 7.33
 1 5 -5 247.26 6.48
 -1 5 -5 258.11 6.39
 1 5 5 284.37 6.4
 -1 5 5 283.75 6.46
 1 -5 -5 267.74 7.07
 -1 -5 -5 287.5 7.31
 1 -5 5 262.6 6.52
 -1 -5 5 276.5 6.74
 -1 -5 5 258.2 5.04
 1 -5 5 276.95 6.13
 -1 5 -5 274.02 6.85
 -1 5 6 33.44 2.38
 1 5 6 29.24 2.22
 -1 5 -6 28.34 2.25
 -1 -5 6 31.06 2.56
 1 -5 6 27.67 2.2
 -1 5 -6 34.62 2.54
 1 5 -6 29.05 2.35
 -1 5 -6 29.82 2.6
 1 -5 -6 32.03 2.58
 1 5 6 30.67 2.44
 1 -5 -6 32.82 2.71
 1 5 6 33.25 2.3
 1 5 -7 175.58 5.88
 -1 5 -7 166.79 5.64
 1 -5 -7 161.6 6.32
 -1 5 7 167.76 5.53
 1 5 7 175.87 5.54
 1 -5 -7 164.3 6.01
 -1 5 7 170.36 5.9
 1 5 7 172.78 5.86
 -1 5 -7 158.09 6.01
 -1 -5 7 178.92 6.24
 1 -5 7 177.01 6.11
 -1 5 -8 15.74 1.77
 1 5 -8 13.49 1.71
 -1 -5 8 15.27 1.86
 1 -5 8 15.73 1.9
 1 -5 -8 15.26 1.78
 -1 -5 8 15.61 1.75
 -1 5 8 14.09 1.72
 1 -5 8 14.13 1.65
 1 5 8 15.64 1.77
 1 5 8 15.27 1.71
 -1 5 8 15.21 1.71
 -1 -5 -8 13.31 1.91
 1 -5 -8 15.05 1.89
 1 5 -8 13.52 1.78
 -1 -6 0 0.28 0.2
 1 -6 0 0.11 0.17
 -1 6 0 1.02 0.33
 1 6 0 0.04 0.14
 1 6 0 0.94 0.35
 -1 6 0 0.1 0.15
 -1 -6 0 0.1 0.13
 1 -6 0 0.07 0.16
 1 6 0 0.06 0.14
 -1 -6 0 0.29 0.21
 1 -6 0 0.26 0.18
 -1 6 0 -0.02 0.11
 1 6 0 0.34 0.24
 -1 6 -1 1097.62 11.8
 1 6 -1 1073.59 12
 1 -6 1 1016.27 10.53
 -1 -6 1 1037.25 10.37
 1 -6 1 1007.62 10.99
 1 6 -1 1067.71 11.55
 -1 6 -1 1009.88 10.93
 -1 6 1 1027.34 10.82
 1 6 -1 1068.66 9.11
 -1 6 -1 1110.35 10.47
 1 6 1 1013.69 10.63
 1 -6 -1 1077.86 11.47
 -1 -6 -1 1032.79 10.2
 1 -6 1 1018.46 10.57
 -1 -6 -1 1046.74 10.62
 -1 -6 1 1042.47 11.34
 1 -6 -1 939.59 9.79
 1 -6 -1 1057.85 11.82
 -1 -6 -1 1033.79 11.74
 1 6 1 1138.8 11.48
 -1 6 1 1036.4 10.18
 1 6 1 992.84 10.97
 1 -6 -2 182.17 5.19
 -1 -6 -2 191.94 5.07
 -1 -6 2 184.88 4.7
 1 -6 2 187.86 4.89
 1 -6 2 191.69 4.87
 -1 -6 2 192.32 4.58
 -1 6 -2 191.18 5.18
 1 6 -2 195.81 5.3
 -1 6 -2 197.47 4.46
 -1 6 -2 192.1 5.07
 1 6 -2 183.01 5.03
 -1 6 2 205.65 5.06
 1 6 2 192.68 4.9
 1 6 -2 193.73 3.85
 1 6 2 188.7 4.94
 -1 6 2 186.01 4.88
 -1 -6 -2 190.17 4.96
 1 -6 -2 189.16 5.22
 -1 -6 -2 185.92 5.07
 -1 6 2 197.78 4.44
 1 6 2 198.39 4.83
 1 -6 2 172.58 4.76
 -1 -6 2 179.04 5.27
 1 -6 3 282.61 6.29
 -1 -6 3 271.39 6.07
 -1 6 -3 265.28 6.76
 1 6 -3 268.61 6.85
 1 -6 -3 270.69 6.55
 -1 -6 -3 282.07 6.58
 -1 6 -3 297.39 5.63
 1 6 -3 268.44 4.81
 1 -6 -3 286.16 6.95
 -1 -6 3 273.79 6.13
 1 -6 3 274.6 6.35
 1 6 3 281.04 6.25
 -1 6 3 292.51 6.25
 1 6 3 277.11 6.27
 -1 6 -3 270.1 6.37
 1 6 -3 290.29 6.78
 -1 -6 3 275.99 6.99
 1 -6 3 275.17 6.77
 -1 6 3 307.56 6.65
 1 6 -3 288.74 6.79
 -1 6 -3 272.83 6.43
 -1 -6 -3 275.33 6.45
 -1 6 3 300.51 5.73
 1 6 3 290.43 5.9
 1 -6 4 881.12 11.78
 -1 6 -4 841.86 12.67
 1 6 -4 865.1 13.1
 -1 -6 -4 813.08 11.92
 1 -6 -4 835.49 12.3
 -1 -6 4 852.57 11.27
 -1 -6 -4 950.43 13.02
 1 -6 -4 934.83 13.21
 1 6 -4 899.35 12.48
 -1 6 -4 854.45 11.82
 1 6 4 893.65 11.23
 1 6 4 924.82 11.68
 -1 6 4 1014.55 12.71
 -1 -6 4 811.14 11.45
 1 -6 -4 888.39 12.48
 -1 -6 -4 893.4 12.46
 1 6 4 911.99 11.7
 1 -6 -4 857.26 10
 -1 6 -4 883.03 12.05
 1 6 -4 886.99 12.31
 -1 6 4 922.15 11.63
 -1 6 4 929.7 11.92
 1 6 -4 833.62 9.26
 1 -6 4 783.62 10.63
 1 -6 -5 24.95 2.27
 1 6 5 24.63 2.24
 -1 6 5 20.74 2.02
 -1 6 -5 25.1 2.11
 -1 -6 -5 20.95 1.68
 1 -6 -5 22.6 1.61
 1 -6 5 22.27 2.08
 1 -6 -5 23.49 2.2
 -1 -6 -5 23.61 2.18
 -1 6 5 22.72 1.96
 1 6 5 23.57 1.95
 -1 6 -5 22.71 1.98
 1 6 -5 22.92 2.06
 -1 -6 5 23.85 1.96
 1 -6 5 23.65 2
 1 6 -5 20.82 2.23
 -1 6 -5 23.44 2.27
 1 -6 -5 23.25 2.1
 -1 -6 -5 21.31 2.05
 1 6 5 23.77 1.93
 -1 6 5 23.61 1.9
 1 -6 5 23.29 1.94
 -1 6 6 140.4 5
 1 6 6 145.54 4.99
 -1 6 -6 140.12 5.2
 1 6 -6 138.81 5.26
 -1 6 -6 144.59 5.73
 1 6 -6 142.83 5.83
 -1 6 6 134.39 5.46
 1 6 6 150.65 5.51
 -1 6 -6 147.93 5.22
 1 -6 -6 140.91 5.53
 -1 -6 -6 134.63 5.27
 -1 -6 -6 136.46 5.28
 1 -6 -6 137.39 5.36
 1 -6 6 127.31 4.73
 -1 -6 6 137.56 4.92
 1 6 6 146.67 4.86
 -1 6 6 151.12 5.01
 1 -6 6 136.48 5.27
 -1 -6 6 136.51 5.3
 1 6 7 351.45 7.87
 -1 6 -7 333.76 8.27
 -1 -6 7 354.77 8.91
 1 -6 7 324.23 8.33
 -1 -6 -7 350.57 8.7
 1 -6 -7 353.73 8.98
 -1 6 7 355.28 8.6
 1 6 -7 375.07 8.81
 -1 6 -7 343.02 8.17
 1 6 7 366.56 7.84
 -1 -6 7 351.3 8.07
 1 6 7 374.79 8.66
 1 -6 7 357.94 8.04
 -1 -6 -7 361.65 8.88
 1 -6 -7 361.11 9.15
 -1 6 -7 370.26 9.32
 1 6 -7 338.42 9.05
 -1 6 -8 12.78 1.61
 -1 6 8 11.94 1.58
 -1 -6 8 11.48 1.49
 1 -6 8 12.64 1.54
 1 6 8 13.12 1.62
 1 -6 8 12.08 1.61
 -1 -6 8 13.59 1.78
 1 -6 -8 13.87 1.9
 -1 -6 -8 12.05 1.72
 1 6 8 13.57 1.56
 -1 -6 -8 12.08 1.62
 1 -6 -8 11.72 1.61
 -1 6 -8 12.57 1.73
 -1 7 0 0.07 0.15
 -1 -7 0 0.17 0.19
 1 7 0 -0.02 0.15
 1 7 0 0.5 0.31
 -1 7 0 0.03 0.15
 1 -7 0 0.08 0.17
 -1 -7 0 0.14 0.21
 1 -7 0 0.02 0.12
 -1 -7 0 0.07 0.18
 1 7 0 0.25 0.19
 -1 7 0 0.02 0.13
 -1 7 1 630.67 9.4
 -1 -7 -1 534.18 7.6
 -1 7 -1 561.01 8.61
 -1 7 -1 607.81 8.25
 1 7 -1 601.21 7.54
 -1 7 1 583.25 8.54
 -1 -7 1 549.26 7.71
 1 -7 1 536.19 8.14
 -1 -7 1 549.71 8.68
 1 -7 1 569.63 8.49
 1 -7 -1 540.2 8.01
 -1 -7 -1 573.26 8.48
 -1 7 1 587.65 8.17
 1 -7 -1 588.41 9.6
 -1 -7 1 560.35 8.37
 1 -7 1 550.25 8.7
 -1 -7 -2 817.01 11.46
 1 -7 -2 830.28 11.89
 -1 -7 -2 889.78 11.25
 -1 7 -2 888.74 11.61
 1 7 -2 862.74 11.63
 -1 -7 2 818.96 9.85
 1 7 -2 884.4 12.08
 -1 7 -2 890.27 11.8
 -1 7 -2 814.67 9.71
 -1 7 2 861.68 10.84
 1 7 2 897.58 11.08
 -1 7 2 842.7 11.03
 1 7 2 890.3 11.3
 1 7 2 882.52 10.87
 -1 7 2 916.17 10.33
 1 -7 2 845.1 10.99
 1 -7 -2 801.52 10.75
 -1 -7 -2 819.73 10.77
 -1 -7 2 857.95 11.41
 1 7 -3 312.03 7.93
 -1 7 -3 318.93 7.9
 1 -7 -3 321.14 7.44
 -1 -7 -3 310.21 7.23
 1 -7 -3 341.87 7.89
 -1 -7 -3 347.28 7.62
 -1 7 -3 322.86 6.17
 1 7 -3 318.23 5.39
 1 -7 3 320.33 7.1
 -1 7 -3 324.32 7.35
 1 7 -3 333.85 7.71
 1 7 3 347.12 7.26
 1 -7 -3 328.35 7.38
 -1 -7 -3 305.73 7.01
 1 7 -3 321.37 7.39
 -1 7 -3 307.24 7.29
 -1 -7 3 299.56 7.29
 1 -7 3 327.36 7.51
 1 7 3 382.72 7.57
 -1 7 3 330.54 6.96
 1 -7 3 314.47 7
 -1 -7 3 316.23 6.76
 -1 7 3 348.32 6.6
 -1 7 3 335.07 7.24
 1 7 -4 402.46 9.17
 -1 -7 -4 379.09 8.38
 1 -7 -4 432.11 9.13
 1 7 4 507.85 8.71
 -1 7 4 447.32 8.36
 -1 -7 -4 483.66 9.5
 1 7 4 418.35 8.11
 1 -7 4 401.22 8.5
 -1 -7 4 423.04 8.52
 1 7 -4 450.87 9.25
 -1 -7 -4 458.25 9.19
 1 -7 -4 425.61 8.85
 1 7 4 446.01 8.52
 -1 -7 4 440.84 9.67
 -1 7 4 456.06 8.64
 -1 -7 -4 477.52 8.32
 1 -7 4 426.83 8.34
 -1 7 -4 454.81 8.05
 1 7 -4 437.5 6.7
 -1 7 -4 432.45 8.8
 1 7 -4 451.03 9.15
 -1 -7 5 112.75 4.39
 1 -7 -5 114.84 4.96
 1 -7 5 110.6 4.7
 -1 -7 5 105.5 4.43
 1 7 -5 107.76 4.66
 -1 7 -5 110.28 4.55
 1 -7 5 109.56 4.43
 -1 7 5 110.48 4.36
 1 7 5 107.53 4.24
 -1 7 -5 97.25 4.7
 1 7 -5 104.01 4.9
 1 -7 -5 107.51 4.67
 -1 -7 -5 105.21 4.56
 1 7 5 106.29 4.55
 -1 7 5 93.49 4.2
 1 7 -5 108.18 4.58
 -1 7 -5 112.74 4.56
 1 7 5 112.89 4.25
 -1 7 5 112.15 4.28
 -1 -7 -5 106.47 3.99
 -1 -7 -5 115.97 4.83
 1 -7 -5 107.79 4.71
 1 -7 6 164.47 5.82
 1 7 -6 165.13 5.97
 1 -7 6 165.23 5.48
 1 7 6 157.94 5.25
 -1 7 6 158.29 5.31
 -1 -7 6 157.3 5.31
 1 -7 -6 163.5 5.86
 -1 -7 -6 155.22 5.73
 -1 7 6 162.36 5.26
 1 7 6 158.5 5.12
 1 7 -6 148.1 6.17
 -1 7 -6 161.79 6.17
 1 7 6 159.71 5.75
 -1 7 6 160.11 6.06
 1 7 -6 162.85 5.75
 -1 7 -6 156.11 5.49
 -1 -7 -6 151.46 5.64
 1 -7 -6 152.76 5.67
 -1 7 7 481.03 9.47
 1 7 7 451.61 8.81
 -1 7 -7 450.77 9.73
 1 7 7 486.94 9.16
 1 7 -7 468.04 9.92
 -1 7 -7 440.03 9.33
 -1 7 -7 438.06 10.35
 1 7 -7 459.78 10.77
 -1 -7 -7 453.69 9.87
 1 -7 -7 458.7 9.98
 1 7 7 431.8 9.33
 -1 7 7 472.17 10.1
 1 -7 7 460.01 9.23
 -1 -7 7 466.41 9.28
 -1 -7 -7 464.44 10.28
 1 -7 -7 466.06 10.38
 1 -7 7 461.89 9.8
 1 7 8 3.72 0.82
 -1 7 8 2.59 0.72
 -1 -7 -8 3.69 0.94
 1 -7 -8 2.61 0.84
 1 7 -8 2.85 0.87
 -1 -7 -8 3.29 0.85
 -1 -7 8 2.96 0.87
 1 -7 8 2.75 0.82
 1 7 -8 3.4 0.88
 -1 7 -8 3.12 0.8
 -1 7 -8 2.36 0.82
 -1 7 8 2.68 0.78
 -1 -7 8 4.45 0.92
 1 7 8 3.56 0.86
 -1 -8 0 -0.02 0.19
 -1 -8 0 0.03 0.17
 -1 8 0 0.08 0.13
 1 8 0 0.08 0.14
 -1 8 0 0.36 0.27
 1 8 0 0.1 0.19
 -1 -8 0 0.03 0.18
 1 -8 0 0.15 0.2
 -1 -8 1 1069.04 12.86
 -1 -8 -1 1096.62 12.49
 1 8 -1 1085.09 13.6
 -1 8 1 1179.21 13.67
 -1 8 -1 1113.91 13.48
 1 -8 1 1056.5 12.81
 -1 -8 1 1063.77 12.4
 1 -8 -1 1090.83 13.06
 1 8 -1 1093.04 13.16
 1 8 1 1053.05 12.6
 -1 8 1 1126.35 13.13
 -1 -8 -1 1089.42 13.91
 1 -8 -1 1019.66 13.44
 -1 -8 1 1078.99 11.55
 1 8 1 1125.98 12.48
 -1 8 1 1098.16 12.49
 -1 8 -1 1164.92 12.25
 1 8 -1 1120.17 11.52
 1 8 1 1126.07 12.76
 -1 8 1 1097.75 11.97
 -1 8 -2 354.31 7.87
 1 8 -2 343.23 7.96
 1 -8 2 355.21 7.44
 -1 -8 2 357.67 7.26
 1 -8 -2 330.24 7.65
 -1 8 -2 347.44 7.54
 1 8 -2 343.58 7.68
 -1 -8 -2 323.02 7.08
 1 -8 -2 345.71 7.26
 -1 -8 2 328.42 7.38
 1 -8 2 326.16 7.18
 1 -8 2 324.89 6.92
 -1 -8 2 337.61 6.61
 1 8 2 351.35 7.08
 -1 8 2 390.39 7.32
 1 8 2 349 7.29
 -1 8 2 342.4 7.39
 -1 8 2 362.31 7.38
 -1 8 -2 379.92 6.87
 1 8 2 341.63 7.27
 1 8 -2 381.44 6.39
 1 -8 -2 357.88 8.11
 -1 -8 -2 331.45 7.8
 1 8 -3 23.4 2.14
 -1 8 3 23.51 1.94
 1 8 -3 24.79 1.62
 -1 -8 3 22.6 1.87
 1 -8 3 22.99 1.95
 1 8 3 24.28 1.86
 -1 8 3 24.36 1.78
 1 -8 -3 24.83 2.08
 -1 -8 -3 25.07 2.08
 -1 8 -3 23.79 1.77
 1 -8 3 21.7 1.99
 -1 -8 3 22.34 2.09
 -1 -8 3 27.96 2.09
 1 -8 -3 22.47 2.1
 -1 -8 -3 23.86 2.07
 1 -8 4 320.19 7.54
 -1 -8 4 312.72 7.28
 1 8 -4 297.14 8.46
 -1 8 -4 286.36 8.16
 1 -8 -4 309.78 7.84
 -1 -8 -4 304.82 7.62
 -1 8 -4 319.96 7.72
 1 8 -4 312.89 7.79
 1 -8 -4 334.32 8.28
 1 -8 4 323.01 7.68
 -1 -8 4 315.74 7.33
 1 8 -4 318.5 8.06
 -1 8 -4 299.61 7.61
 1 8 4 319.01 7.43
 -1 8 4 333.95 7.59
 -1 8 4 313.56 7.21
 -1 -8 4 298.94 8.05
 1 -8 4 320.49 8.21
 1 8 4 328.3 7.09
 1 8 4 336.27 7.5
 -1 8 -4 327.47 6.7
 1 -8 -4 325.71 7.98
 -1 -8 -4 322.14 7.82
 -1 -8 -5 0.12 0.27
 1 -8 5 0.41 0.36
 -1 -8 5 0.33 0.34
 -1 8 -5 0.48 0.34
 1 8 -5 0.43 0.32
 1 8 5 0.78 0.37
 -1 8 5 0.26 0.26
 -1 8 -5 0.56 0.39
 -1 -8 -5 0.11 0.21
 1 8 -5 0.28 0.28
 -1 -8 -5 0.46 0.34
 1 -8 -5 1.33 0.55
 1 8 -5 1.68 0.66
 1 -8 5 0.37 0.4
 -1 -8 -5 0.47 0.33
 1 -8 -5 1.12 0.51
 -1 -8 5 0.51 0.44
 -1 8 5 0.8 0.4
 1 8 5 0.39 0.3
 1 -8 5 0.1 0.21
 1 8 5 0.88 0.43
 1 8 6 35.69 2.82
 -1 8 6 31.39 2.6
 1 8 6 36.39 2.45
 -1 8 6 34.34 2.42
 -1 8 -6 29.82 2.64
 1 8 -6 34.81 2.74
 -1 -8 6 35.17 2.72
 1 8 -6 37.72 2.98
 -1 8 -6 36.76 2.76
 -1 -8 -6 39.59 2.98
 1 -8 -6 34.4 2.75
 -1 8 6 37.26 2.58
 1 -8 6 35.07 2.73
 -1 -8 7 358.71 8.67
 -1 8 -7 335.21 8.67
 -1 8 7 360.15 8.06
 1 8 7 360.15 7.87
 1 -8 7 343.32 8.11
 1 8 -7 345.67 8.55
 1 -8 -7 334.76 8.73
 1 8 7 336.96 8.31
 -1 8 7 334.6 8.55
 1 -8 -7 324.56 8.59
 -1 8 -7 326.65 8.92
 1 -8 7 365.1 8.89
 1 8 8 1.07 0.48
 1 -9 0 0.03 0.18
 -1 -9 0 0.03 0.19
 -1 9 0 0.03 0.21
 -1 9 0 0.14 0.21
 1 -9 0 0.07 0.21
 -1 -9 0 -0.03 0.17
 1 9 0 0.06 0.14
 -1 9 0 -0.03 0.18
 1 9 0 0.42 0.32
 -1 -9 0 0.06 0.23
 1 -9 0 0.14 0.17
 1 9 -1 809.46 12.45
 -1 9 -1 770.78 11.95
 -1 9 1 757.17 11.29
 1 9 -1 804.86 11.32
 1 9 1 795.31 11.4
 -1 -9 -1 780.88 11.05
 1 -9 -1 771.76 10.74
 1 -9 1 789.39 11.3
 -1 -9 1 783.32 11.48
 1 9 1 743.47 10.56
 -1 9 1 753.71 10.73
 1 9 -1 793.28 10.27
 -1 9 -1 778.77 10.55
 1 -9 -1 791.23 11.74
 -1 9 -1 768.62 11.33
 1 9 -1 759.18 11.37
 1 -9 -1 749.43 12.46
 -1 -9 -1 769.12 12.09
 -1 -9 1 817.71 11.45
 1 -9 1 767.74 11.46
 -1 9 1 821.96 12.11
 -1 -9 1 770.38 10.45
 1 -9 1 734.81 10.8
 1 9 1 767.73 11.33
 -1 9 1 774.35 10.6
 -1 -9 2 559.72 8.96
 1 -9 2 549.91 9.45
 -1 9 -2 580.9 10.16
 -1 -9 -2 586.13 10.18
 1 9 2 593.18 9.7
 -1 9 2 585.97 9.53
 -1 -9 -2 494.61 9.83
 -1 9 -2 586.43 10.59
 1 9 2 562.2 9.69
 -1 9 -2 586.86 9.08
 1 9 -2 626.84 8.75
 -1 -9 2 598.03 9.73
 1 -9 2 565.71 9.79
 -1 -9 2 548.52 9.89
 1 -9 -2 591.78 9.94
 -1 -9 -2 564.94 9.8
 1 -9 3 48.8 2.89
 -1 -9 3 49.74 2.81
 -1 9 -3 49.34 3.03
 1 9 -3 50.44 3.16
 -1 9 -3 50.28 3.15
 1 9 -3 50.35 3.3
 1 9 3 47.7 2.86
 -1 9 3 49.99 2.9
 -1 -9 -3 49.42 3.05
 1 -9 3 52.63 3.12
 -1 -9 3 50.97 2.94
 1 9 -3 48.45 2.47
 -1 9 -3 49.95 2.64
 -1 9 3 45.42 2.81
 1 9 3 49.92 2.9
 1 -9 -3 52.93 3.29
 -1 -9 -3 46.96 3.02
 -1 -9 -3 50.82 3.15
 1 -9 -3 48.63 3.17
 1 -9 3 49.93 3.05
 -1 -9 3 48.32 3.07
 1 9 3 50 2.76
 -1 9 3 51.67 2.75
 -1 -9 -4 387.63 8.71
 1 -9 -4 393.34 9.2
 -1 9 -4 437.57 8.15
 1 -9 -4 427.9 9.59
 -1 -9 -4 448.36 9.69
 -1 9 4 425.21 8.56
 1 -9 4 422.74 8.96
 -1 -9 4 392.3 8.38
 -1 9 -4 398.1 9.02
 1 9 -4 423.07 9.54
 1 9 4 440.49 8.87
 1 9 4 428.04 8.66
 1 9 4 419.19 8.22
 -1 9 4 412.83 8.13
 -1 9 4 449.76 9.01
 1 9 -4 399 9.04
 -1 9 -4 425.85 9.18
 1 -9 -4 435.78 9.6
 -1 -9 -4 429.69 9.2
 1 -9 4 401.81 9.07
 -1 -9 4 410.72 9.45
 -1 -9 4 417.38 8.64
 1 -9 4 430.7 8.88
 1 -9 -5 178.05 6.39
 -1 9 5 149.14 5.27
 -1 9 -5 153.03 5.63
 1 9 -5 160.57 6.04
 -1 9 5 156.31 5.21
 1 9 5 151.57 5.11
 -1 -9 5 157.4 5.47
 1 -9 5 162.25 5.74
 -1 9 5 158.28 5.41
 1 9 5 155.61 5.3
 1 9 -5 153.62 5.65
 -1 9 -5 155.52 5.55
 1 -9 5 152.32 5.37
 -1 -9 5 160.14 5.45
 -1 -9 -5 153.52 5.61
 1 -9 -5 142.34 5.54
 1 -9 -5 157.22 5.83
 1 9 -5 130.84 5.91
 -1 9 -5 138.17 5.97
 -1 -9 5 159.15 6.14
 1 -9 5 157.2 6.03
 1 -9 -6 81.91 4.38
 -1 -9 6 80.11 4.14
 1 9 -6 80.16 4.39
 -1 -9 -6 78.65 4.18
 -1 9 -6 74.6 3.88
 1 9 -6 82.06 4.19
 1 -9 6 74.87 3.79
 -1 -9 6 81.64 3.92
 -1 9 6 73.53 3.64
 -1 -9 -6 75.95 4.01
 1 -9 -6 72.21 3.92
 1 9 6 78.97 4.17
 -1 9 6 69.37 3.86
 -1 9 6 73.22 3.7
 1 9 6 74.9 3.63
 -1 9 -6 72.86 4.23
 1 9 -6 79.18 4.45
 1 -9 6 73.94 4.27
 -1 -9 6 73.03 4.41
 -1 9 -7 208.33 6.88
 -1 9 7 217.37 6.2
 1 9 7 226.9 6.36
 1 -9 7 224.33 6.51
 -1 -9 7 228.55 6.66
 1 -9 -7 208.5 6.76
 -1 -9 -7 204.36 6.53
 -1 -9 7 188.33 6.9
 1 -9 7 209.76 7.3
 1 9 7 220.39 6.85
 -1 9 7 198.36 6.58
 1 9 -7 227.92 7.06
 1 -9 -7 211.74 7.07
 -1 -9 -7 215.09 6.87
 -1 9 -7 198.83 6.89
 1 9 -7 211.25 7.35
 1 9 7 225.65 6.15
 1 -10 0 0.24 0.27
 -1 -10 0 0.53 0.32
 -1 10 0 1.46 0.52
 1 10 0 1.18 0.47
 1 10 0 1.32 0.48
 -1 10 0 0.19 0.21
 -1 -10 0 0.32 0.33
 1 -10 0 0.41 0.3
 1 10 0 0.03 0.17
 1 10 -1 395.55 9.05
 -1 10 -1 424.03 9.21
 1 10 -1 392.61 8.47
 1 10 1 418.14 8.62
 -1 10 1 380.39 8.37
 -1 -10 1 412.72 8.54
 1 -10 -1 410.46 8.18
 1 -10 1 388.99 8.07
 -1 10 -1 396.73 7.97
 1 10 -1 398.59 7.7
 1 10 1 398 8.02
 -1 -10 1 417.36 8.2
 1 -10 1 391.66 8.3
 1 10 -1 390.07 8.43
 -1 10 1 405.43 8.89
 1 10 1 401.71 8.46
 -1 10 1 382.45 7.99
 -1 -10 -1 353.39 7.36
 1 -10 -1 401.27 8.66
 -1 -10 1 409.47 8.52
 1 -10 1 401.83 8.75
 1 -10 -1 355.92 9.21
 -1 -10 -1 365.85 9.02
 -1 -10 2 56.8 3.28
 1 -10 2 60.18 3.31
 1 10 -2 56.01 3.65
 -1 10 -2 55.68 3.47
 1 10 -2 57.88 3.39
 -1 -10 -2 51.76 3.44
 1 -10 -2 56.05 3.39
 1 10 2 65.06 3.4
 -1 10 2 58.59 3.26
 1 10 2 54.61 3.1
 -1 10 2 58.09 3.22
 -1 -10 -2 58.75 3.34
 -1 -10 2 58.59 3.24
 1 -10 2 61 3.4
 -1 -10 2 56.14 3.01
 1 -10 2 57.9 3.18
 -1 10 -2 55.32 2.95
 1 10 2 62.77 3.35
 -1 10 2 56.56 3.13
 1 -10 -3 160.2 5.78
 -1 -10 3 162.4 5.49
 1 -10 3 172.23 5.7
 -1 -10 3 170.23 5.38
 1 -10 3 161.73 5.42
 1 10 -3 173.83 6.31
 -1 10 -3 159.11 5.91
 1 -10 -3 171.59 5.84
 -1 -10 -3 163.41 5.66
 -1 -10 3 149.32 5.47
 -1 -10 -3 162.61 5.82
 1 -10 -3 171.43 6.12
 1 -10 3 164.56 5.65
 -1 10 -3 169.49 5.16
 -1 10 3 171.09 5.62
 -1 10 -3 161.4 5.66
 1 10 -3 162.45 5.8
 -1 10 3 171.27 5.54
 1 10 3 162.17 5.46
 -1 10 3 162.23 5.07
 -1 -10 4 578.75 10.3
 1 -10 4 593.44 10.73
 -1 -10 -4 584.94 10.98
 1 -10 -4 641.64 11.77
 -1 10 -4 589.54 11.43
 1 10 -4 630.4 12.08
 1 10 4 624.76 10.7
 1 10 4 585.54 10.27
 -1 10 4 595.92 10.63
 1 -10 -4 595.74 11.24
 -1 -10 -4 574.16 10.88
 -1 -10 4 613.91 10.74
 1 -10 4 616.17 10.83
 -1 -10 -4 624.47 11.7
 1 10 4 564.57 9.74
 -1 10 -4 617.85 11.15
 1 10 -4 616.12 11.43
 -1 10 5 28.99 2.36
 -1 10 5 28.61 2.3
 1 10 5 27.11 2.2
 1 -10 5 30.09 2.53
 1 10 5 26.2 2.17
 1 -10 5 28.7 2.55
 -1 10 -5 29.73 2.53
 -1 -10 -5 31.52 2.75
 1 -10 -5 31.72 2.74
 -1 -10 5 31.03 2.45
 -1 10 -5 26.96 2.46
 1 10 -5 24.7 2.46
 1 -10 -5 29.22 2.58
 -1 -10 -5 29.18 2.51
 1 -10 -6 176.77 6.5
 1 -10 6 174.26 6.12
 1 10 6 157.82 5.4
 -1 10 6 166.95 5.48
 -1 10 6 161.04 5.42
 1 10 -6 169.53 6.08
 -1 10 -6 170.72 6.03
 -1 -10 6 165.29 5.68
 1 -10 6 172.56 5.85
 1 -10 -6 165.11 6.33
 -1 -10 -6 168.61 6.16
 1 10 -6 152.04 6.16
 -1 10 -6 167.46 6.14
 -1 10 6 139.11 5.38
 1 10 6 150.97 5.65
 -1 -10 -6 157.65 5.84
 1 -10 -6 159.22 5.91
 -1 10 -6 150.35 6.11
 1 -10 6 151.05 6.11
 -1 -10 6 152.36 6.15
 -1 10 -7 175.85 6.34
 -1 -10 7 192.48 6.08
 1 10 -7 175.53 6.13
 1 10 7 173.41 5.43
 -1 10 7 161.3 6.1
 1 -10 7 194.58 6.44
 1 -10 -7 181.56 6.42
 -1 -10 -7 176.77 6.27
 1 -10 7 150.86 6.08
 -1 10 -7 168.79 6.62
 -1 -11 0 0.79 0.43
 1 11 0 0.1 0.23
 -1 11 0 0.17 0.22
 1 -11 0 0.1 0.21
 -1 -11 0 0.35 0.31
 1 11 0 0.47 0.38
 -1 11 0 0.04 0.22
 -1 -11 0 0.34 0.33
 1 -11 0 0.4 0.35
 1 11 0 0.7 0.39
 -1 11 0 0.1 0.22
 1 11 0 0.04 0.2
 -1 11 1 170.24 5.74
 1 11 -1 171.75 5.8
 1 11 1 162.67 5.59
 -1 11 -1 159.12 5.52
 -1 -11 -1 193.82 5.96
 1 -11 -1 180.6 6.01
 1 -11 1 174.61 5.91
 -1 -11 1 167.24 5.7
 -1 -11 1 175.74 5.64
 1 -11 1 170.38 5.75
 -1 -11 1 174.39 5.78
 1 -11 1 170.01 5.64
 -1 -11 -1 178.1 5.86
 1 -11 -1 178.16 5.71
 -1 -11 -1 177.02 6.28
 1 -11 -1 168.03 6.09
 1 11 -1 178.1 6.55
 -1 11 -1 176.22 6.34
 -1 11 1 164.16 5.36
 1 11 1 158.98 5.59
 1 11 -1 165.28 5.76
 -1 11 1 184.94 5.74
 1 11 -1 175.2 5.45
 1 11 1 178.85 5.6
 -1 11 -1 191.22 5.71
 1 11 -2 176.15 6.12
 -1 11 -2 180.39 6.09
 1 -11 -2 165.44 6.07
 1 -11 -2 185.62 6.36
 1 -11 2 173.93 5.9
 -1 -11 2 184.92 6.05
 1 -11 -2 181.31 5.99
 -1 -11 2 169.69 5.9
 1 -11 2 166.45 5.77
 -1 -11 -2 172.85 5.91
 -1 11 -2 187.52 5.66
 -1 11 2 173.42 5.62
 -1 11 2 190.06 5.88
 1 11 2 178.15 5.84
 1 -11 2 182.72 5.89
 -1 -11 2 181.92 5.72
 -1 11 -3 31.28 2.69
 1 11 -3 34 2.85
 1 -11 -3 31.51 2.58
 1 11 3 29.18 2.36
 -1 11 3 29.08 2.37
 -1 11 -3 30.53 2.52
 1 11 -3 31.25 2.6
 1 11 3 28.87 2.34
 -1 11 3 28.51 2.37
 1 -11 -3 29.75 2.56
 -1 -11 -3 29.12 2.54
 1 11 3 28.04 2.21
 1 -11 3 30.11 2.42
 -1 -11 3 28.74 2.31
 -1 -11 -3 29.85 2.57
 1 -11 -3 29.19 2.57
 1 -11 3 29.41 2.47
 -1 -11 3 30.48 2.54
 -1 -11 -3 29.99 2.52
 -1 -11 -4 609.19 11.57
 1 -11 -4 588.99 11.41
 1 11 4 587.24 10.57
 1 -11 4 617.95 11.13
 -1 -11 4 572.59 10.4
 -1 11 -4 582.41 11.56
 1 11 -4 565.9 12.05
 1 -11 -4 629.87 12.16
 -1 11 4 564.77 10.34
 -1 11 -4 593.76 11.14
 1 11 -4 578.24 11.33
 -1 -11 4 570.86 11.22
 1 -11 4 599.85 11.38
 -1 -11 4 610.12 11.02
 -1 -11 -4 554.38 10.82
 1 -11 -4 576.55 11.26
 1 11 4 575.08 10.36
 -1 11 4 613.01 10.84
 -1 -11 -5 42.96 3.24
 1 -11 -5 44.09 3.26
 1 -11 5 45.24 3.08
 -1 -11 5 37.27 2.99
 1 -11 5 38.97 2.96
 1 11 -5 40.1 3
 -1 11 -5 37.76 2.84
 -1 -11 -5 35.99 2.81
 1 -11 -5 38.59 2.94
 1 11 5 34.99 2.62
 -1 11 -5 41.85 3.1
 1 11 -5 35.78 3.01
 1 -11 -5 39.54 3.07
 -1 -11 -5 40.55 3.03
 1 11 5 39.93 2.72
 -1 11 5 43.35 2.86
 1 11 5 38.99 2.65
 1 -11 5 42.18 2.91
 -1 -11 5 40.37 2.84
 1 -11 6 21.65 2.16
 1 11 -6 18.81 2.19
 -1 11 -6 20.96 2.21
 -1 11 6 20.34 1.96
 1 11 6 19.15 1.88
 1 -11 6 21.69 2.09
 -1 -11 6 20.77 2.03
 -1 -11 6 19.55 2.22
 1 -11 6 19.33 2.2
 1 11 6 17.59 1.92
 -1 11 6 18.26 1.9
 1 11 6 20.01 1.93
 -1 -11 -6 20.37 2.15
 -1 -11 -6 19.73 2.06
 1 -11 -6 21 2.19
 -1 11 -6 21.34 2.15
 1 11 -6 20.03 2.11
 1 -12 0 0.27 0.28
 1 -12 0 0.08 0.22
 -1 12 0 0.98 0.46
 1 12 0 0.15 0.26
 -1 -12 0 0.04 0.25
 1 12 0 -0.03 0.17
 -1 12 0 0.04 0.18
 1 12 0 0.07 0.17
 -1 12 1 277.19 7.55
 1 12 1 271.59 7.44
 1 12 -1 301.72 7.84
 -1 -12 -1 276.93 8.06
 1 -12 -1 273.56 8.09
 1 -12 -1 270.69 7.31
 -1 -12 1 282.61 7.43
 1 -12 1 272.47 7.39
 -1 12 -1 278.99 7.36
 1 12 1 278.91 7.22
 1 12 -1 291.14 7.17
 -1 12 1 299.56 7.63
 -1 12 -1 267.93 7.35
 1 12 -1 287.75 8.34
 -1 12 -1 266.27 8.06
 1 -12 1 263.45 7.43
 1 -12 1 278.02 7.81
 -1 -12 1 277.27 7.58
 1 12 -1 276.46 7.65
 1 12 1 241.05 7.19
 -1 12 1 252.55 6.75
 -1 -12 -1 301.39 7.93
 1 -12 -1 270.68 7.59
 1 12 -2 336.65 8.37
 -1 12 2 277.99 7.5
 1 12 2 311.08 7.98
 1 -12 -2 350.7 8.9
 -1 -12 -2 355.71 8.85
 -1 -12 2 351.95 8.44
 -1 -12 -2 339.42 8.4
 1 12 2 335.68 8.11
 -1 12 -2 327.03 7.69
 -1 12 2 330.66 7.91
 -1 12 -2 329.29 8.36
 1 12 -2 328.16 8.31
 -1 12 -2 341.45 8.92
 1 12 -2 327.43 8.87
 1 -12 2 325.13 8.1
 -1 -12 2 324.83 7.93
 1 -12 2 343.94 8.63
 1 12 2 314.2 7.74
 -1 12 2 340.27 8.08
 -1 -12 -2 352.55 8.7
 1 -12 -2 319.69 8.49
 1 -12 3 111.44 4.77
 -1 -12 3 112.81 4.86
 1 -12 3 115.71 5.02
 -1 12 -3 117.85 5.23
 1 12 -3 112.79 5.21
 1 -12 -3 112.23 5.15
 -1 -12 -3 109.67 4.94
 -1 12 3 105.82 4.59
 1 12 3 110.29 4.71
 -1 12 -3 104.68 4.75
 1 12 -3 116.56 5.15
 -1 12 3 104.19 4.6
 1 12 3 111.2 4.63
 1 12 3 105.43 4.38
 1 -12 -3 118.37 5.19
 -1 -12 -3 115.92 5.27
 1 -12 -3 110.09 4.92
 -1 -12 3 111.98 4.88
 -1 -12 -3 111.25 4.87
 1 -12 3 113.15 4.92
 -1 -12 -4 495.99 10.79
 1 -12 -4 500.22 10.93
 1 -12 -4 477.3 10.48
 -1 -12 -4 492.13 10.51
 1 -12 4 485.73 10.09
 1 12 -4 416.06 10.82
 -1 12 -4 419.91 10.42
 1 12 4 483.61 9.71
 -1 12 4 443.81 9.38
 1 -12 4 474.6 9.98
 -1 -12 -4 449.35 10.02
 1 -12 -4 454.03 10.09
 -1 -12 4 447.34 10.17
 -1 12 4 485.83 9.81
 1 12 4 472.15 9.45
 -1 12 -4 482.47 10.29
 1 12 -4 455.93 10.19
 1 -12 5 42.85 3
 1 12 -5 39.9 3.2
 1 -12 5 39.44 3.03
 1 -12 -5 42.19 3.22
 -1 12 -5 39.93 2.98
 1 12 -5 42.45 3.12
 -1 -12 -5 38.39 2.91
 1 -12 -5 38.56 3
 1 12 5 42.28 2.89
 -1 -12 5 40.71 2.9
 1 -12 5 44.41 3.08
 -1 12 5 41.14 2.81
 1 12 5 45.25 2.9
 1 -12 -5 45.82 3.31
 -1 -12 6 50.27 3.19
 -1 12 6 47.24 2.9
 1 -12 -6 57.97 3.85
 1 -12 6 47.1 3.36
 -1 12 6 39.23 2.79
 -1 12 -6 48.66 3.37
 1 12 -6 46.75 3.45
 -1 -12 -6 50.07 3.36
 1 -12 -6 52.71 3.56
 -1 13 0 -0.04 0.18
 1 13 0 0.31 0.3
 1 13 0 0.08 0.17
 1 -13 0 0.09 0.21
 -1 -13 0 -0.05 0.23
 1 13 0 0.04 0.14
 1 -13 0 0.05 0.18
 -1 13 0 0.22 0.3
 -1 -13 0 1.05 0.53
 1 -13 0 -0.05 0.25
 1 -13 0 0.24 0.32
 -1 -13 0 -0.04 0.2
 -1 13 -1 133.97 5.32
 1 13 1 123.15 5.09
 1 13 -1 133.23 5.31
 -1 13 1 131.45 5.26
 1 13 1 116.79 5.12
 1 13 -1 132.52 5.32
 -1 13 1 124.85 4.93
 -1 13 -1 120.46 5.08
 1 -13 -1 124.52 5.6
 -1 -13 -1 133.42 5.67
 1 13 -1 128.72 5.66
 -1 13 -1 136.75 5.19
 -1 13 1 135.35 5.16
 1 13 1 132.88 5.25
 -1 13 -1 125.69 5.63
 1 -13 1 133.88 5.62
 -1 -13 1 136.44 5.51
 1 -13 -1 136.54 5.34
 1 -13 1 135.69 5.31
 -1 -13 1 142.15 5.46
 -1 -13 -1 130.15 5.23
 1 13 -2 136.55 5.49
 1 13 2 105.69 4.79
 -1 13 2 116.28 4.84
 -1 -13 -2 120.49 5.29
 -1 -13 2 120.54 5.04
 1 -13 -2 124.53 5.28
 -1 -13 -2 124.18 5.25
 1 -13 2 119.86 5.03
 -1 13 2 124.81 4.96
 1 13 2 134.16 5.24
 -1 13 -2 117.9 5.11
 1 -13 2 131.93 5.45
 -1 -13 2 129.77 5.31
 1 -13 2 129.93 5.41
 1 13 -2 124.83 5.61
 -1 13 -2 123.5 5.45
 1 13 2 124.95 5.04
 1 -13 -2 115.39 5.3
 1 13 -3 75.26 4.33
 -1 13 -3 77.71 4.33
 1 -13 -3 78.98 4.33
 -1 -13 -3 71.74 4.12
 1 -13 -3 84.26 4.46
 1 13 3 74.62 3.87
 -1 13 3 69.3 3.77
 1 -13 3 80.78 4.22
 1 -13 3 79.03 4.23
 -1 13 -3 79.65 4.24
 1 13 -3 76.89 4.2
 -1 -13 3 75.7 4.08
 -1 -13 -3 79.43 4.27
 -1 13 3 75.5 3.91
 1 13 3 78.29 3.99
 1 -13 -3 79.83 4.27
 -1 13 4 280.96 7.54
 -1 13 -4 295.85 8.39
 1 13 4 280.42 7.43
 1 13 -4 296.46 8.33
 -1 -13 -4 273.64 7.88
 1 -13 -4 323.73 8.75
 -1 -13 -4 309.66 8.46
 1 13 4 288.44 7.57
 1 -13 -4 306.3 8.64
 1 -13 4 307.29 8.26
 -1 -13 4 307.05 8.06
 -1 -13 4 316.21 8.46
 1 -13 4 296.1 8.12
 1 13 -5 24.81 2.59
 -1 13 -5 31.22 2.76
 -1 13 5 33.29 2.54
 1 13 5 32.75 2.49
 1 13 -5 33.94 2.83
 -1 13 -5 33.24 2.74
 -1 -13 -5 34.55 2.87
 1 -13 -5 34.4 2.94
 1 -13 -5 32.21 2.71
 -1 -13 -5 31.15 2.64
 -1 -13 5 33.52 2.8
 1 -13 5 36.07 2.89
 1 -13 5 34.29 2.73
 -1 -13 5 35.47 2.75
 -1 13 5 31.9 2.55
 1 13 5 32.81 2.44
 1 -13 -5 32.81 2.9
 -1 14 0 0.08 0.23
 -1 14 0 0.4 0.38
 -1 14 0 0.16 0.23
 1 -14 0 -0.04 0.26
 1 -14 0 -0.08 0.26
 -1 -14 0 -0.04 0.3
 -1 14 0 0.08 0.28
 -1 -14 0 0.14 0.34
 1 -14 0 0.09 0.24
 -1 -14 0 0.05 0.19
 1 -14 0 0.14 0.28
 1 -14 1 221.63 7.35
 -1 -14 1 226.62 7.28
 1 -14 -1 201.41 6.57
 1 14 -1 239.99 7.55
 -1 14 -1 223.9 7.54
 -1 -14 -1 222.21 7
 1 -14 1 220.95 7.14
 -1 -14 1 222.5 7.01
 1 -14 -1 220.46 7.02
 1 -14 -1 238.89 7.6
 -1 -14 -1 218.33 7.45
 1 14 1 212.48 6.74
 1 14 -1 220.74 6.88
 1 14 1 229.35 6.93
 -1 14 -1 214.14 7.07
 1 14 -1 208.74 6.83
 -1 14 1 210.91 6.79
 1 14 1 225.7 6.99
 -1 14 1 218.2 6.69
 -1 -14 2 34.35 2.81
 1 -14 2 35.05 2.89
 -1 14 2 30.97 2.54
 1 14 2 32.54 2.66
 -1 14 -2 30.12 2.73
 1 14 -2 34.41 3.03
 1 -14 -2 36.83 3.06
 -1 -14 -2 34.14 2.82
 -1 -14 2 34.34 2.78
 1 -14 2 35.81 2.81
 1 -14 -2 32.58 2.76
 1 14 2 35.54 2.78
 -1 14 2 31.62 2.59
 -1 -14 -2 32.81 2.89
 1 -14 -2 35.43 2.96
 1 14 2 31.55 2.54
 1 14 -2 32.6 2.76
 -1 14 -2 31.82 2.67
 -1 -14 -3 23.67 2.39
 1 -14 3 28.26 2.55
 1 -14 -3 25.59 2.48
 -1 -14 3 24.05 2.38
 -1 -14 -3 24.34 2.42
 1 14 3 23.52 2.21
 -1 14 -3 22.75 2.37
 1 14 -3 21.54 2.39
 -1 14 3 24.92 2.26
 1 14 3 25.38 2.29
 -1 14 -4 126.94 5.69
 1 14 -4 122.82 5.96
 1 14 4 167.39 5.8
 -1 -14 4 154.89 5.96
 1 -14 4 147.68 5.79
 1 14 4 149.83 5.48
 1 -14 -4 148.55 5.93
 -1 -14 -4 161.25 6.07
 1 14 -4 163.98 6.22
 -1 14 -4 153.32 5.92
 -1 -14 4 164.34 6.1
 1 -14 4 168.74 6.23
 -1 14 4 136.68 5.51
 -1 -14 -4 163.83 6.19
 1 -14 -4 157.92 6.12
 -1 14 4 136.26 5.27
 1 -15 0 0.53 0.43
 -1 -15 0 0.05 0.24
 -1 -15 0 0.66 0.47
 1 -15 0 0.04 0.28
 1 -15 0 0.05 0.28
 -1 -15 0 0.53 0.46
 1 15 0 0.41 0.33
 1 15 0 -0.04 0.25
 -1 15 -1 287.06 7.92
 1 15 1 237.56 7.15
 1 -15 -1 325.33 8.72
 1 -15 1 307.41 8.42
 -1 15 1 313.01 8.14
 -1 15 -1 280.7 8.45
 -1 -15 -1 284.37 8.63
 1 -15 -1 284.66 8.43
 -1 -15 1 289.2 8.39
 -1 15 -1 312.22 8.38
 1 15 1 301.13 8.06
 1 15 -1 245.76 7.81
 -1 15 1 287.9 7.85
 1 -15 2 150.12 6.06
 -1 -15 2 141.49 5.85
 1 15 2 150.39 5.71
 -1 15 2 135.94 5.38
 1 15 -2 144.24 5.78
 -1 -15 -2 148.74 6.03
 1 -15 -2 143.44 6.02
 1 -15 -2 148.23 6.01
 -1 -15 -2 154.94 6.1
 1 -15 2 148.46 5.81
 -1 -15 2 145.14 5.74
 1 15 -2 118.38 5.52
 1 15 2 139.84 5.52
 -1 15 2 144.24 5.53
 -1 15 -2 144.08 5.73
 -1 15 -2 117.12 5.44
 -1 -15 3 14.27 1.78
 1 -15 3 13.57 1.77
 -1 -15 -3 14.5 1.88
 -1 15 -3 12.98 1.78
 1 -15 3 15.28 1.94
 -1 -15 3 13.64 1.82
 1 15 3 13.53 1.7
 -1 15 3 11.96 1.62
 -1 -16 0 -0.04 0.27
 1 16 0 -0.04 0.24
 -1 16 0 0.04 0.24
 1 16 0 0.08 0.25
 -1 16 -1 157.86 6.24
 1 -16 1 154.17 6.41
 -1 -16 1 165.36 6.23
 -1 -16 -1 163.2 6.25
 -1 16 2 36.77 2.86
 2 0 0 4.51 0.39
 -2 0 0 2.69 0.29
 -2 0 0 3.01 0.27
 2 0 0 3.87 0.28
 -2 0 1 991.07 7.39
 2 0 -1 983.86 4.79
 -2 0 1 994.33 4.63
 2 0 1 1022.2 6.81
 -2 0 -1 1036.3 6.93
 2 0 -1 975.22 6.73
 -2 0 -1 991.44 7.11
 -2 0 1 1038.6 5.23
 2 0 1 1026.01 7.01
 2 0 -1 1038.54 7.29
 -2 0 1 913.15 4.73
 2 0 1 1080.24 7.67
 2 0 -2 4365.82 19.05
 -2 0 2 4122.71 10.12
 -2 0 -2 4192.71 17.22
 2 0 2 4551.05 18.74
 2 0 -2 4299.18 14.02
 2 0 -2 4175.09 10.19
 2 0 2 4234.03 16.99
 2 0 -2 4301.96 19.67
 -2 0 -2 4296.12 17.64
 -2 0 2 4041.24 11.06
 -2 0 2 4117.79 14.14
 -2 0 -2 4496.88 19.69
 2 0 2 4315.9 16.74
 -2 0 2 4421.49 20.25
 -2 0 -3 4276.03 23.06
 2 0 -3 3861.1 13.79
 -2 0 3 4000.77 14.14
 2 0 3 4295.45 19.78
 -2 0 3 4017.33 22.51
 2 0 3 4215.04 20.31
 -2 0 -3 4012.23 20.95
 2 0 -3 4140.12 22.55
 -2 0 -3 4064.19 19.41
 2 0 3 4354.76 21.64
 -2 0 3 4048.2 17.47
 2 0 -3 3971.82 17.26
 2 0 -4 294.87 4.44
 2 0 -4 298.45 5.49
 -2 0 4 279.92 4.39
 2 0 4 290.81 5.69
 -2 0 -4 292.76 5.59
 2 0 4 287.92 5.98
 -2 0 -4 282.98 6.33
 -2 0 4 273.21 5.27
 2 0 4 288.97 6.13
 2 0 -5 607.38 8.87
 -2 0 -5 637.03 9.55
 -2 0 5 566.69 9.97
 2 0 5 562.2 9.07
 2 0 5 560.93 9.13
 -2 0 5 612.83 8.97
 2 0 -5 526.26 10
 -2 0 -5 582.95 9.81
 -2 0 -5 558.96 8.43
 -2 0 -5 542.38 10.21
 -2 0 5 564.73 7.03
 -2 0 -6 6.73 1.24
 2 0 -6 7.04 1.05
 -2 0 -6 7.97 1.07
 2 0 6 7.36 1.06
 -2 0 6 5.67 1.06
 2 0 6 7.24 1.1
 2 0 -6 5.34 1.05
 -2 0 -6 6.75 1.07
 -2 0 -6 6.32 1.11
 -2 0 6 6.84 1.07
 2 0 7 151.5 5.32
 2 0 -7 129.61 5.32
 -2 0 -7 133.19 5.1
 2 0 7 131.51 4.77
 -2 0 7 147.07 5.45
 -2 0 -7 144.77 4.73
 -2 0 -8 1.54 0.58
 2 0 -8 1.02 0.5
 2 0 8 1.29 0.5
 -2 0 8 1.25 0.54
 -2 0 -8 1.73 0.56
 2 0 8 1.22 0.51
 -2 0 -9 47.04 3.14
 2 0 9 46.44 2.88
 2 -1 0 5742.85 14.3
 2 1 0 5711.08 13.05
 2 -1 1 1.59 0.26
 2 1 -1 2.07 0.35
 -2 -1 -1 1.69 0.28
 -2 -1 1 1.38 0.26
 2 -1 -1 2.36 0.38
 2 -1 1 2.11 0.34
 2 -1 1 1.41 0.29
 -2 1 -1 1.9 0.31
 -2 -1 -1 2.46 0.36
 2 1 1 2.24 0.36
 2 1 1 2.01 0.36
 -2 -1 -1 1.72 0.32
 -2 1 1 1.92 0.29
 -2 1 -1 1.71 0.3
 2 1 1 1.81 0.32
 2 1 -1 1.96 0.3
 -2 1 -2 2202.07 13.08
 2 1 -2 2079.11 14.01
 2 -1 -2 1977.68 13.51
 -2 -1 -2 2109.47 12.62
 2 1 2 2025.86 11.86
 2 -1 2 2084.92 12.17
 -2 -1 2 1949.23 12.77
 2 -1 -2 1952.96 13.39
 2 1 -2 2020.62 9.6
 2 1 2 2066.65 12.88
 2 -1 2 2156.77 13.18
 -2 1 2 1771.75 13.27
 2 -1 2 2110.56 13.17
 2 -1 -2 1901.71 13.46
 -2 1 -2 2150.69 13.87
 -2 -1 -2 2072.8 13.63
 -2 1 2 2079.25 11.13
 2 -1 2 2069.62 12.26
 2 1 -2 2006.08 10.99
 -2 -1 -2 2113.14 12.51
 2 1 2 2165.56 13.38
 2 -1 -2 1982.86 8.6
 -2 1 -2 2132.95 12.38
 2 -1 -3 17.6 1.51
 -2 1 3 7.67 1.04
 -2 1 -3 8.43 1
 2 1 -3 8.85 1.09
 -2 1 -3 8.15 0.88
 -2 -1 -3 6.92 0.77
 2 -1 -3 7.71 0.56
 2 1 3 8.37 0.96
 2 -1 3 6.88 0.87
 -2 -1 3 6.87 0.7
 -2 1 3 7.26 0.8
 -2 1 3 8 0.72
 2 1 3 8.58 0.91
 -2 1 -3 9.04 0.99
 2 -1 -3 8.12 0.76
 -2 1 -3 8.24 1.05
 2 -1 -3 8.02 1.06
 -2 -1 -3 11.44 1.19
 -2 -1 -3 11.53 1.16
 2 -1 -3 10.2 1.13
 2 1 -3 8.17 0.71
 2 1 -3 8.91 0.87
 2 1 3 7.92 0.9
 2 -1 3 8.21 0.91
 -2 -1 3 17.78 1.44
 -2 1 4 1.16 0.45
 2 1 4 0.27 0.22
 2 -1 4 0.37 0.27
 2 1 -4 0.25 0.2
 2 -1 -4 0.96 0.34
 2 -1 -4 0.57 0.35
 2 1 4 0.69 0.3
 -2 -1 4 0.66 0.2
 -2 1 4 0.29 0.17
 2 -1 4 0.23 0.19
 2 1 -4 0.12 0.19
 -2 1 -4 0.39 0.27
 -2 -1 -4 0.4 0.28
 -2 -1 -4 0.56 0.27
 2 -1 -4 0.22 0.13
 2 1 -4 0.33 0.2
 2 1 4 0.16 0.19
 -2 1 4 0.83 0.32
 2 -1 4 0.39 0.25
 -2 1 -5 44.55 3
 2 -1 -5 46.43 3.06
 -2 -1 -5 43.73 2.93
 -2 1 5 44.61 2.14
 2 1 5 45.07 2.47
 -2 1 -5 50.7 2.78
 2 -1 -5 49.36 2.44
 2 -1 -5 44.34 2.86
 -2 1 5 42.19 2.76
 2 -1 5 44.46 2.51
 2 1 5 48.6 2.72
 -2 -1 5 45.31 2.77
 -2 -1 5 43.6 1.8
 2 -1 5 47.68 2.51
 2 -1 5 42.92 2.59
 2 1 5 44.8 2.67
 -2 -1 5 42.95 2.32
 2 1 -5 43.73 2.12
 -2 1 -5 46.28 2.8
 2 1 -5 40.19 2.8
 2 -1 -5 44.26 1.87
 -2 1 -5 43.29 2.37
 -2 -1 -6 604.12 9.75
 -2 1 -6 593.41 9.75
 2 -1 -6 557.7 8.96
 -2 -1 -6 496.6 9.69
 2 -1 -6 511.66 10.11
 2 1 6 582.59 9.24
 2 1 -6 552.74 9.34
 -2 1 -6 576.56 9.03
 -2 -1 -6 565.94 8.95
 -2 -1 6 541.98 9.07
 -2 1 6 554.72 9.37
 2 -1 6 555.89 9.78
 2 1 6 537.01 9.45
 2 1 6 546.02 9.45
 2 -1 6 531.1 9.28
 -2 1 6 522.45 10.2
 -2 -1 6 540.08 10.01
 -2 -1 -6 584.35 11.1
 2 -1 6 592.73 9.48
 -2 1 -6 474.89 9.59
 2 1 -6 488.02 10.12
 2 -1 -7 4.01 0.95
 -2 -1 -7 3.94 0.9
 -2 1 7 3.71 0.83
 2 -1 7 3.68 0.85
 -2 -1 -7 5.1 0.95
 -2 1 -7 5.02 0.93
 -2 -1 -7 3.81 0.97
 2 1 -7 6.71 1.11
 2 -1 7 4.81 0.92
 -2 1 7 3.62 0.89
 2 1 7 4.25 0.89
 -2 -1 7 4.09 0.92
 -2 1 -7 3.75 0.79
 -2 1 -7 3.74 0.88
 2 1 -7 3.51 0.9
 2 -1 8 572.78 10.2
 -2 1 8 609.89 11.18
 2 1 8 604.69 10.35
 -2 -1 8 612.14 10.87
 2 -1 8 576.06 10.83
 2 1 -8 564.31 11.26
 2 -1 -8 542.14 10.9
 -2 -1 -8 587.61 11.06
 -2 1 -8 539.63 10.56
 2 1 8 664.91 11.28
 -2 -1 -8 662.79 10.74
 2 1 9 10.9 1.4
 -2 -1 -9 12.07 1.6
 -2 1 -9 9.26 1.39
 2 -2 0 0.33 0.16
 -2 -2 0 0.22 0.09
 2 -2 0 0.06 0.11
 -2 2 0 0.07 0.11
 2 2 0 -0.01 0.09
 2 2 0 0.55 0.11
 2 -2 0 0.41 0.1
 -2 -2 0 0.06 0.1
 -2 2 0 0.07 0.07
 2 -2 0 0.18 0.13
 2 2 0 0.58 0.17
 2 -2 1 1206.12 9
 2 2 1 1139.16 8.42
 2 2 1 1203.71 8.72
 2 2 -1 1079.13 7.94
 -2 2 -1 1055.16 7.97
 -2 2 -1 1136.94 7.66
 2 2 -1 955.45 8.4
 2 -2 -1 1162.82 8.3
 -2 -2 -1 1098.18 7.78
 2 -2 -1 981.97 7.81
 2 -2 1 1082.73 8.21
 2 -2 -1 1000.69 6.96
 2 2 1 1053.01 8.52
 -2 -2 1 1141.83 8.59
 -2 2 -1 1178.17 8.2
 -2 -2 1 1078.51 7.01
 -2 -2 -1 1150.75 8.24
 2 2 -1 1081.74 7.89
 -2 2 1 1092.13 5.42
 2 -2 1 1027.99 7.8
 -2 2 1 1094.54 8.11
 2 2 -2 0.63 0.27
 -2 -2 -2 0.55 0.23
 2 -2 -2 0.29 0.2
 -2 2 -2 0.74 0.28
 2 -2 -2 0.67 0.15
 2 -2 2 0.57 0.23
 2 2 2 0.35 0.18
 2 -2 2 0.35 0.19
 -2 2 2 0.58 0.21
 2 2 2 0.42 0.21
 -2 -2 2 2.21 0.43
 2 -2 -2 0.37 0.2
 2 2 -2 0.48 0.21
 -2 -2 2 0.31 0.1
 2 2 -2 0.41 0.11
 -2 2 2 1.92 0.41
 2 2 -2 0.31 0.16
 2 -2 -2 0.76 0.14
 -2 -2 -2 0.64 0.24
 -2 2 -3 1868.67 14.93
 2 2 -3 1811.96 15.58
 2 -2 -3 1825.08 15.67
 -2 -2 -3 1914.88 14.86
 2 -2 3 1817.48 13.99
 -2 -2 3 1748.53 13.8
 2 2 3 1969.05 14.44
 2 -2 -3 1700.81 15.47
 2 2 -3 1874.96 12.26
 -2 -2 -3 1974.42 13.63
 2 -2 3 1885.53 15.12
 2 2 3 1774.07 14.24
 -2 2 3 1797.2 12.15
 -2 -2 -3 1744.11 15.13
 2 -2 -3 1586.84 14.73
 2 2 3 1860.3 13.65
 2 2 -3 1751.88 6.97
 -2 2 3 1941.31 14.07
 -2 2 -3 1857.47 14.1
 -2 2 3 1807.14 15.91
 2 -2 -3 1655.57 8.17
 -2 2 -3 1929.53 13.74
 2 -2 3 1798.82 13.02
 -2 -2 3 1941.43 7.49
 -2 2 4 764.68 11.62
 -2 2 4 796.48 9.02
 2 2 4 901.31 10.37
 2 2 -4 792.02 11.5
 2 2 -4 767.36 8.81
 2 -2 4 825.06 10.76
 -2 -2 -4 872.51 11.69
 -2 2 4 850.64 10.14
 -2 -2 4 741.75 8.09
 2 -2 -4 840.44 6.77
 -2 -2 -4 820.75 9.32
 -2 2 -4 834.1 9.76
 2 2 -4 868.31 10.46
 2 -2 -4 801.79 11.36
 2 -2 4 844.31 9.75
 -2 -2 4 769.72 6.04
 -2 2 -4 821.87 10.42
 2 2 4 841.45 10.55
 2 -2 4 790.9 10.14
 -2 -2 4 789.5 10.48
 2 -2 5 1476.3 15.06
 2 2 5 1616.88 14.77
 -2 2 5 1590.69 13.52
 -2 2 -5 1422.54 15.75
 2 2 -5 1409.12 16.68
 2 2 -5 1595.88 13.98
 2 -2 5 1495.01 15.57
 -2 -2 -5 1749.02 18.07
 2 -2 -5 1507.26 17.51
 2 2 5 1587.19 15.67
 -2 2 5 1496.43 14.57
 -2 -2 5 1515.12 13.55
 -2 2 -5 1517.85 13.95
 2 -2 -5 1478.97 10.7
 2 2 -5 1580.38 15.26
 2 -2 -5 1362.43 15.59
 -2 -2 -5 1485.38 16.14
 -2 -2 5 1467.38 10.04
 2 -2 5 1452.5 14.08
 -2 2 -5 1583.7 15.57
 2 -2 -5 1587.7 13.71
 2 -2 5 1512.93 15.12
 -2 2 5 1478.91 16.39
 -2 -2 5 1419.22 15.14
 2 2 5 1569.48 15.65
 2 -2 6 6.11 1.06
 2 2 6 7.06 1.04
 -2 2 6 6.99 0.97
 2 2 -6 7.2 1.21
 -2 2 -6 6.26 1.13
 2 -2 6 5.21 1.02
 -2 -2 6 6.81 1.01
 -2 2 6 6.06 0.99
 2 2 6 6.79 1.07
 2 2 -6 7 1.01
 2 -2 -6 6.32 1.22
 -2 -2 -6 7 1.24
 -2 -2 -6 6.93 1
 -2 2 -6 5.25 0.89
 2 2 -6 6.29 1.04
 2 -2 6 5.75 1.01
 -2 -2 6 6.31 1.08
 -2 2 6 6.95 1.19
 2 2 6 6.51 1.05
 2 -2 6 6 0.97
 -2 2 -6 7.18 1.08
 2 -2 -6 7.64 1.06
 2 -2 -6 7.45 1.22
 -2 -2 -6 6.02 1.08
 2 -2 7 74.23 3.83
 -2 2 -7 74.75 3.91
 2 2 -7 72.06 3.95
 -2 2 7 81.58 3.81
 2 2 7 81.86 3.85
 -2 2 -7 80.2 3.53
 -2 2 -7 79.69 3.69
 -2 -2 -7 88.32 3.88
 -2 -2 -7 82.46 4.06
 2 -2 -7 75.68 4.03
 2 2 -7 77.59 3.82
 2 2 7 80.5 3.62
 -2 -2 7 78.56 3.87
 -2 2 7 80.83 4.05
 2 -2 7 78.36 3.73
 2 2 7 79.95 3.78
 -2 -2 -7 76.81 4.22
 2 -2 -7 79.22 4.41
 2 2 8 0.48 0.31
 -2 2 8 0.27 0.28
 2 -2 8 0.24 0.29
 -2 -2 8 1.13 0.5
 2 2 8 0.34 0.32
 -2 -2 -8 0.3 0.35
 -2 2 -8 0.39 0.31
 2 -2 -8 0.45 0.36
 -2 -2 -8 0.23 0.26
 2 2 -8 0.24 0.3
 2 -2 8 0.18 0.3
 -2 2 -8 0.72 0.38
 -2 -2 -8 0.14 0.24
 2 2 9 32.73 2.43
 -2 2 -9 30.01 2.5
 2 3 0 6678.89 17.49
 2 -3 0 6699.55 21.55
 -2 -3 0 6753.68 16.85
 -2 3 0 6419.97 17.29
 -2 3 0 6926 19.85
 2 3 0 6320.29 21.64
 -2 -3 0 6645.78 20.72
 2 -3 0 6614.5 15.85
 2 3 0 6359.15 19.35
 2 -3 0 6299.57 20.96
 2 3 1 6285.01 22.29
 -2 3 -1 6159.28 20.71
 2 3 -1 6193.47 21.91
 2 -3 1 6247.56 21.12
 2 3 -1 6404.11 23.67
 -2 -3 1 6318.14 18.49
 -2 -3 -1 6335.57 21.91
 2 -3 -1 6347.06 21.57
 2 -3 -1 6167.84 23.02
 -2 -3 -1 6307.51 18.41
 -2 3 1 6078.35 17.16
 -2 3 -1 6544.58 21.63
 2 3 -1 6256.43 22.47
 2 -3 1 6289.48 22.01
 -2 -3 1 6113.83 22.05
 2 -3 1 6203.13 19.44
 2 3 1 6285.75 21.23
 2 -3 -1 6085.91 19.21
 -2 -3 -1 6350.34 21.01
 2 3 1 6188.21 21.41
 -2 3 1 5984.89 20.72
 2 3 -1 6388.69 16.38
 2 -3 1 6207.45 23.46
 2 3 -2 849.81 9.76
 -2 3 -2 814.43 8.83
 2 -3 -2 800.8 9.26
 2 3 2 837.54 8.72
 2 -3 -2 824.63 9.55
 2 -3 2 827.48 8.97
 2 3 -2 816.4 8.37
 -2 -3 2 728.97 7.47
 2 -3 2 792.19 9.1
 -2 3 2 871.56 8.8
 2 3 2 884.97 9.18
 -2 3 2 845.22 8.25
 2 3 2 878.62 8.64
 -2 3 -2 804.77 8.6
 2 -3 2 807.59 8.64
 2 -3 -2 768.91 8.46
 -2 -3 -2 809.75 8.97
 -2 3 -2 880.08 8.68
 2 3 -3 8.12 1.1
 -2 3 -3 7.21 0.97
 2 -3 -3 8.48 1.08
 -2 -3 -3 8.42 1.04
 2 -3 -3 6.43 0.57
 -2 -3 -3 7.34 0.86
 2 -3 -3 9.12 1.14
 2 -3 3 7.56 0.91
 2 -3 -3 6.64 0.93
 -2 -3 -3 7.97 1.04
 2 -3 3 7.89 1.02
 2 -3 3 7.65 0.93
 -2 -3 3 7.38 0.9
 -2 3 3 9.36 1.03
 2 3 3 7.83 0.9
 -2 3 -3 7.31 0.92
 2 3 3 8.36 0.98
 -2 3 -3 8.07 0.91
 2 3 3 7.84 0.98
 -2 3 3 8.98 1.1
 2 3 -3 8.64 1
 -2 3 3 8 0.87
 -2 -3 -4 1.03 0.44
 2 -3 -4 0.54 0.2
 -2 -3 -4 0.48 0.26
 2 3 -4 1.11 0.39
 -2 -3 4 0.74 0.2
 -2 3 4 1.51 0.47
 2 3 4 0.4 0.27
 -2 3 4 0.61 0.37
 2 3 4 0.62 0.34
 2 -3 4 0.36 0.27
 -2 -3 4 0.18 0.22
 2 -3 4 0.23 0.19
 -2 3 4 0.38 0.25
 2 3 -4 0.25 0.21
 -2 3 -4 0.4 0.25
 2 -3 -4 0.19 0.28
 2 -3 4 0.62 0.35
 -2 -3 -4 0.49 0.28
 2 -3 -4 0.54 0.33
 2 3 -4 0.7 0.37
 2 -3 -5 1.46 0.44
 2 3 -5 0.89 0.39
 -2 3 -5 1.11 0.45
 2 3 5 0.81 0.36
 2 -3 5 0.66 0.35
 -2 -3 5 0.74 0.25
 -2 3 5 0.99 0.37
 -2 -3 -5 0.96 0.36
 -2 3 -5 0.81 0.34
 2 3 -5 0.84 0.36
 -2 -3 5 1.73 0.54
 2 -3 5 0.58 0.35
 2 3 5 1.19 0.47
 2 -3 -5 3.05 0.49
 -2 -3 -5 1.38 0.54
 2 -3 -5 0.58 0.33
 -2 3 -5 0.69 0.38
 -2 3 5 0.53 0.32
 -2 -3 5 0.94 0.36
 2 3 5 0.57 0.31
 2 -3 6 596.06 10.68
 2 3 6 613.09 10.28
 -2 3 6 594.04 9.97
 2 -3 6 602.59 9.61
 -2 -3 -6 618.82 11.37
 2 -3 -6 566.63 11.11
 -2 -3 6 597.03 10.2
 -2 3 6 579.88 10.79
 2 3 6 605.39 10.25
 2 -3 6 589.75 9.95
 2 3 -6 552.58 9.65
 2 3 -6 548.12 10.65
 -2 3 -6 558.5 10.53
 -2 3 6 606.32 9.47
 -2 -3 -6 563.04 10.42
 2 -3 -6 566.27 10.49
 2 -3 -6 655.63 9.71
 -2 3 -6 582.86 9.9
 -2 -3 -6 637.28 9.49
 -2 -3 -7 18.5 1.92
 2 -3 -7 18.64 2.04
 -2 -3 -7 21.93 1.97
 -2 3 -7 18.82 1.84
 2 3 7 19.04 1.79
 -2 -3 7 19.2 1.91
 2 3 7 19.65 1.9
 2 -3 7 18.89 1.83
 -2 3 7 18.88 1.96
 2 3 -7 19.28 1.94
 2 -3 7 19.37 1.98
 -2 3 -7 18.85 1.8
 2 -3 -7 19.79 2.2
 -2 -3 -7 21.05 2.19
 2 3 7 18.34 1.8
 -2 3 7 19.17 1.86
 2 3 -7 19.43 2.11
 -2 3 -7 18.28 1.96
 2 3 8 352.99 8.15
 -2 -3 -8 343.4 8.53
 2 -3 -8 308.18 8.15
 -2 3 -8 362.09 8.12
 -2 -3 8 341.03 8.77
 2 -3 8 333.61 8.62
 -2 3 -8 322.02 8.42
 2 3 -8 306.22 8.2
 -2 -3 8 361.05 8.38
 -2 3 8 356.88 8.6
 2 3 8 358.99 8.19
 2 -3 -8 339.9 9.48
 -2 -3 -8 310.69 8.79
 -2 3 -9 2.58 0.7
 2 -4 0 6.46 0.61
 2 4 0 6.92 0.72
 -2 4 0 6.39 0.64
 2 -4 0 6.2 0.74
 -2 -4 0 5.99 0.53
 -2 4 0 6.69 0.72
 2 4 0 6.69 0.64
 -2 4 0 6.54 0.72
 -2 -4 0 6.63 0.63
 2 4 1 581.59 6.89
 -2 4 -1 546.16 6.98
 2 -4 -1 537.03 7.01
 -2 -4 -1 578.42 6.23
 2 -4 -1 531.49 7.24
 2 4 -1 515.87 5.75
 2 -4 1 508.9 6.7
 -2 -4 1 514.48 5.18
 -2 4 1 557.68 5.47
 -2 -4 -1 528.53 6.66
 2 -4 -1 524.33 6.06
 2 4 -1 448.28 4.4
 -2 4 1 532.54 6.94
 2 -4 1 525.12 6.85
 -2 -4 1 557.51 6.1
 -2 4 -1 541.15 6.49
 -2 -4 1 465.97 6.68
 2 -4 1 551.78 6.41
 2 4 -1 534.16 7.21
 -2 4 -1 544.47 6.72
 -2 4 2 4.63 0.69
 2 4 2 5.23 0.72
 -2 4 2 5.05 0.54
 2 4 -2 4.52 0.71
 -2 4 -2 4.32 0.69
 2 -4 2 4.64 0.7
 2 4 -2 4.42 0.74
 -2 4 -2 4.4 0.71
 2 -4 -2 5.08 0.77
 -2 -4 -2 4.87 0.75
 -2 -4 -2 6.23 0.79
 2 -4 -2 7.21 0.96
 2 -4 2 4.49 0.72
 -2 -4 2 8.02 0.85
 2 4 2 4.78 0.69
 2 4 2 5.19 0.73
 -2 -4 2 4.82 0.65
 2 -4 2 4.13 0.69
 -2 -4 -2 8.29 0.96
 -2 4 2 4.95 0.72
 -2 -4 2 4.5 0.76
 -2 4 -2 4.32 0.66
 2 4 -2 4.46 0.7
 -2 -4 -3 3081.09 20.33
 2 -4 -3 2948.68 20.57
 2 4 3 2877.78 18.41
 2 -4 -3 3204.42 22.03
 -2 4 -3 3191.9 19.54
 2 4 -3 2981.3 19.15
 2 -4 3 3028.14 20.36
 -2 -4 3 2881.08 18.7
 2 4 3 3289.07 19.8
 -2 -4 -3 2989.07 20.28
 2 -4 3 2966.12 18.92
 2 -4 3 2851.68 18.69
 -2 -4 3 3098.47 18.88
 -2 4 3 3235.31 19.82
 -2 -4 -3 3452.43 19.99
 -2 4 3 3152.49 18.46
 2 4 -3 3057.46 19.83
 -2 4 -3 3099.47 19.77
 2 4 3 3315.52 20.14
 2 4 -3 3054.69 22.56
 -2 4 4 0.42 0.27
 2 4 4 0.12 0.15
 2 -4 4 0.1 0.16
 2 -4 -4 0.23 0.28
 2 -4 4 0.27 0.28
 2 4 4 0.16 0.17
 2 -4 -4 0.06 0.17
 -2 -4 -4 0.1 0.2
 -2 -4 -4 0.21 0.2
 2 -4 -4 0.06 0.14
 2 4 -4 -0.04 0.16
 -2 4 -4 0.09 0.2
 -2 4 -4 0.3 0.25
 2 -4 -4 0.15 0.12
 2 4 -4 0.05 0.15
 -2 -4 -4 0.59 0.28
 2 -4 4 0.03 0.18
 -2 4 4 0.09 0.2
 -2 -4 4 0.11 0.2
 2 4 -4 0.28 0.26
 -2 4 -4 0.2 0.22
 -2 4 -5 940.19 11.93
 -2 4 5 967.85 11.56
 2 4 5 1030.73 12.03
 -2 -4 5 922.96 12.69
 2 -4 5 972.05 13.27
 -2 4 -5 1013.52 14.1
 2 4 -5 935.19 14.11
 -2 4 5 969.7 12.26
 2 4 5 986.77 12.18
 2 -4 -5 822.33 8.59
 -2 -4 -5 921.51 10.83
 2 4 -5 996.39 12.89
 -2 4 -5 1044.59 13.06
 2 -4 -5 991.26 13.89
 2 4 5 964.59 12.67
 2 -4 5 934.99 12.19
 -2 -4 -5 1062.88 13.89
 2 -4 -5 985.6 13.93
 -2 4 5 954.66 14.31
 2 4 -6 137.8 4.92
 -2 4 -6 139.28 4.82
 2 4 6 147.65 4.87
 -2 4 6 147.08 4.66
 -2 4 -6 136.87 5.4
 2 4 -6 127.24 5.26
 2 -4 6 136.1 5.19
 -2 -4 6 128.33 5.04
 -2 4 6 135.37 4.81
 -2 -4 -6 137.87 5.33
 2 -4 -6 140.95 5.66
 -2 -4 -6 141.47 4.5
 2 4 -6 136.46 4.99
 -2 4 -6 138.16 4.87
 2 -4 6 132.57 4.79
 2 4 6 140.38 5.03
 -2 -4 6 135.91 4.95
 -2 4 6 130.32 5.17
 2 -4 6 139.3 4.67
 2 -4 -6 144.7 5.46
 2 4 7 79.62 3.81
 -2 4 7 76.5 3.73
 -2 -4 7 68.99 3.8
 2 -4 7 71.25 3.81
 2 4 7 79.74 3.66
 2 -4 -7 69.8 3.82
 -2 -4 -7 69.03 3.78
 -2 4 7 74.03 3.9
 2 4 7 74.45 3.76
 -2 -4 7 71.92 3.73
 2 -4 7 71.97 3.61
 2 -4 -7 77.05 4.26
 -2 -4 -7 68.69 3.98
 -2 4 -7 72.89 3.99
 2 4 -7 70.21 4.02
 2 4 -7 85.15 4.11
 -2 4 -7 72.33 3.63
 -2 4 -7 71.42 3.5
 -2 -4 -8 0.34 0.34
 2 -4 -8 0.58 0.42
 -2 -4 8 0.56 0.41
 2 4 8 0.47 0.33
 -2 4 -8 0.25 0.25
 2 4 8 0.35 0.3
 -2 -4 8 0.55 0.39
 2 4 -8 0.55 0.37
 2 -4 -8 0.65 0.39
 -2 -4 -8 0.78 0.41
 -2 4 -8 0.8 0.43
 -2 -5 0 1305.52 11.3
 2 -5 0 1259.78 9.63
 -2 5 0 1217.27 10.78
 2 5 0 1351.08 11.97
 -2 5 0 1234.47 9.92
 -2 -5 0 1173.5 8.65
 2 -5 0 1174.92 11.69
 -2 -5 0 1192.69 9.8
 -2 5 0 1340.31 11.05
 2 5 0 1247.81 9.62
 -2 5 -1 6.61 0.78
 -2 -5 -1 5.86 0.81
 2 -5 -1 5.54 0.79
 -2 -5 -1 6.25 0.73
 2 -5 -1 5.19 0.79
 2 5 -1 6.15 0.86
 -2 5 -1 5.77 0.79
 2 -5 1 5.26 0.75
 -2 -5 1 5.53 0.6
 2 -5 1 14.2 1.26
 -2 5 1 6.21 0.75
 2 5 -1 14.21 1.3
 -2 5 -1 7.27 0.88
 -2 5 1 7.14 0.86
 2 5 1 6.51 0.81
 2 5 -1 5.96 0.58
 -2 5 1 5.88 0.66
 2 5 1 7.32 0.92
 -2 -5 -1 5.23 0.72
 -2 -5 1 5.31 0.78
 2 -5 -1 5.33 0.68
 2 5 -1 8.54 0.85
 2 5 1 6.25 0.83
 2 -5 1 5.38 0.7
 -2 5 2 1824.46 11.5
 2 5 2 1855.03 14.23
 -2 5 -2 1801.68 14.57
 2 5 -2 1688.12 14.72
 2 -5 2 1672.63 14.02
 -2 -5 2 1677.9 13.06
 2 5 -2 1751.89 16.06
 -2 5 -2 1778.91 15.74
 -2 5 -2 1735.54 13.16
 2 -5 -2 1782.46 15.14
 -2 -5 -2 1679.35 14.65
 -2 -5 -2 1731.45 13.66
 2 -5 -2 1723.71 15.45
 2 -5 2 1805.22 14.93
 2 5 -2 1870.25 15.64
 -2 5 -2 1731.99 14.4
 2 5 2 1758.64 14.2
 2 -5 -2 1635.2 13.65
 -2 -5 -2 1774.94 14.54
 2 -5 2 1810.76 15.56
 2 -5 2 1796.4 14.56
 -2 -5 2 1642.71 14.77
 -2 5 2 1776.71 14.23
 -2 5 2 1805.02 14.61
 2 5 -2 1807.23 9.14
 2 5 2 1752.47 14.12
 -2 5 -3 124.93 4.11
 2 -5 3 127.83 4.13
 2 5 -3 119.07 4.5
 -2 5 -3 121.66 4.28
 -2 -5 3 122.28 3.8
 -2 5 3 127.53 3.93
 -2 -5 -3 126.68 4.17
 2 -5 -3 132.93 4.67
 2 5 3 139.98 4.1
 2 5 3 143.46 4.19
 -2 -5 3 121.37 3.94
 2 5 3 123.92 4.12
 2 -5 -3 123.53 4.19
 -2 -5 -3 126.94 4.23
 2 5 3 128.36 3.88
 2 5 -3 132.25 2.71
 2 -5 3 128.49 4.2
 -2 -5 -3 114.91 3.76
 2 5 -3 127.61 4.27
 -2 5 -3 128.36 4.03
 -2 -5 3 124.78 4.73
 -2 5 3 131.68 4.13
 2 -5 4 0.63 0.35
 -2 -5 4 0.46 0.35
 2 -5 -4 0.42 0.34
 -2 5 4 0.33 0.26
 2 5 4 0.96 0.4
 2 -5 4 0.73 0.34
 2 5 4 0.72 0.36
 -2 -5 4 0.36 0.29
 2 -5 4 0.29 0.29
 -2 5 4 0.24 0.28
 -2 -5 -4 0.22 0.21
 2 -5 -4 0.4 0.29
 2 5 -4 0.52 0.36
 -2 5 -4 0.83 0.41
 -2 5 -4 0.54 0.35
 -2 5 4 0.34 0.29
 2 5 4 0.63 0.32
 2 -5 -4 0.34 0.31
 -2 -5 -4 0.25 0.28
 -2 5 -4 0.18 0.24
 2 -5 -5 4.95 1.04
 2 5 5 4.82 0.94
 -2 5 5 4.75 0.99
 -2 5 -5 5.37 0.95
 -2 -5 -5 5.05 0.85
 2 -5 5 5.16 1
 -2 -5 5 4.85 1.01
 -2 -5 -5 5.96 1.09
 -2 5 5 5.86 1
 2 5 5 5.27 0.91
 -2 -5 5 4.71 0.89
 2 -5 5 4.81 0.89
 2 -5 -5 5.22 1.02
 -2 -5 -5 5.44 1.01
 -2 5 5 5.03 0.87
 2 -5 5 4.86 0.87
 2 5 -5 4.8 1.03
 2 5 -5 9.44 1.27
 -2 5 6 340.05 8.54
 2 5 -6 363.59 9.15
 -2 5 -6 362.31 8.99
 -2 5 6 366.93 7.94
 -2 5 -6 353.26 7.7
 2 5 -6 349.81 8.4
 2 -5 6 364.81 8.53
 -2 -5 6 344.68 8.46
 2 -5 6 351.55 7.75
 2 5 6 366.96 8.26
 2 -5 -6 353.29 8.68
 -2 -5 -6 365.14 7.29
 -2 -5 -6 369.5 8.67
 2 -5 -6 373.42 9.04
 2 5 -6 389.39 8.64
 -2 5 6 389.91 7.92
 2 5 6 378.24 7.73
 -2 5 7 130.07 4.94
 2 5 7 127.45 4.72
 -2 5 -7 112.84 4.53
 -2 -5 7 118.77 5.12
 2 5 7 126.18 4.9
 2 -5 7 118.41 4.58
 -2 5 -7 121.23 4.73
 2 5 -7 132.37 5.23
 -2 5 7 107.83 4.72
 2 -5 -7 124.76 5.1
 2 5 -7 118.44 5.31
 -2 5 -7 120.63 5.24
 2 -5 -7 129.07 5.67
 -2 -5 -7 118.79 5.16
 2 5 7 133.87 4.8
 2 5 -8 402.1 9.8
 -2 5 -8 416.21 9.88
 -2 5 8 449.87 9.24
 -2 -5 8 424.77 10.34
 -2 -5 -8 419.18 10.22
 -2 -5 8 457.27 9.48
 2 5 8 454.43 9.37
 -2 5 8 444.18 9.61
 2 -5 8 429.17 8.85
 2 -5 -8 439.43 9.65
 -2 -5 -8 441.95 9.45
 -2 -6 0 0.37 0.21
 2 -6 0 0.35 0.25
 2 6 0 0.51 0.28
 -2 6 0 0.88 0.32
 -2 -6 0 0.32 0.22
 2 -6 0 0.49 0.29
 2 6 0 0.86 0.32
 -2 6 0 1.2 0.37
 -2 6 0 0.98 0.35
 2 -6 0 0.66 0.26
 -2 -6 0 0.5 0.28
 -2 -6 1 402.5 5.66
 2 -6 1 405.98 6.97
 -2 6 1 434.1 6.87
 -2 6 -1 419.01 7.23
 2 6 -1 424.41 7.68
 2 6 1 457.16 7.7
 -2 6 1 414.57 6.09
 2 -6 -1 403.55 7.39
 -2 -6 -1 406.71 7.41
 -2 6 -1 433.75 6.77
 -2 6 1 422.94 6.93
 2 6 -1 396.1 5.36
 -2 -6 1 412.7 6.35
 2 -6 1 399.66 7.18
 2 -6 -1 403.15 7.33
 -2 -6 -1 430.43 6.61
 2 6 -1 421.8 6.6
 2 6 1 430.6 7.21
 2 -6 -1 367.35 5.97
 -2 -6 -1 382.14 6.61
 2 -6 1 415.23 6.57
 -2 -6 1 389.54 7.09
 2 6 -1 404.74 7.3
 -2 6 -1 415.85 6.94
 -2 6 -2 253.3 5.31
 -2 -6 -2 244.88 5.78
 2 -6 -2 237.75 5.92
 -2 -6 -2 247.12 5.51
 2 6 -2 251.69 6.17
 2 -6 2 250.52 5.74
 -2 -6 2 243.45 4.91
 -2 6 -2 253.19 5.75
 2 6 2 255.14 5.67
 2 6 -2 258.08 4.02
 -2 6 2 249.46 5.69
 2 -6 2 268.04 5.74
 2 -6 -2 224.11 5.33
 -2 6 2 263.4 4.97
 2 6 2 257.27 5.61
 -2 -6 2 232.3 5.14
 2 -6 3 1907.09 16.65
 -2 -6 3 1855.2 15.79
 -2 6 -3 1869.81 17.84
 2 6 -3 1846.87 18.31
 2 -6 -3 1893.36 17.62
 -2 -6 -3 1828.72 16.68
 2 -6 -3 1902.36 18.87
 -2 -6 -3 2021.19 17.23
 2 -6 3 1943.2 17.21
 -2 -6 3 1768.64 15.27
 2 6 3 1964.79 16.46
 -2 -6 -3 1943.14 17.1
 -2 -6 3 1891.64 18.82
 2 6 3 1991.19 16.51
 2 6 -3 1889.43 17.45
 -2 6 -3 1893.97 16.78
 -2 6 -3 1917.3 16.74
 2 6 -3 2028.63 18.12
 -2 6 -3 1929.37 15.33
 2 6 -3 1944.79 11.18
 -2 6 3 1940.4 16.54
 2 -6 3 2018.27 18.29
 -2 -6 -4 0.55 0.32
 2 -6 -4 0.88 0.43
 -2 6 -4 0.51 0.36
 -2 -6 4 0.48 0.32
 2 -6 4 1.49 0.52
 2 -6 -4 0.61 0.42
 -2 -6 4 0.53 0.32
 2 -6 4 0.57 0.38
 -2 6 4 0.63 0.3
 2 6 4 0.78 0.36
 2 6 -4 0.95 0.28
 2 6 4 0.86 0.39
 -2 6 4 2.64 0.67
 -2 6 -4 0.47 0.3
 2 6 -4 0.74 0.4
 2 -6 -4 0.52 0.35
 -2 -6 4 0.84 0.48
 -2 -6 -4 0.59 0.36
 -2 6 -4 0.59 0.33
 -2 -6 -4 0.29 0.25
 2 -6 -4 0.73 0.28
 2 6 -4 1.04 0.46
 2 -6 -5 680.96 11.98
 2 6 -5 646.07 11.21
 -2 6 -5 609.86 10.21
 -2 6 5 656.39 10.13
 2 6 5 658.13 9.93
 2 -6 5 628.55 10.4
 2 -6 5 664.96 11.25
 -2 -6 5 586.56 10.47
 -2 -6 -5 660.01 11.31
 2 -6 -5 626.87 11.06
 2 6 5 622.6 10.04
 -2 6 5 664.52 10.66
 -2 -6 -5 630 9.65
 2 6 -5 665.54 11.15
 -2 6 -5 646.33 10.56
 2 -6 -5 650.29 11.51
 -2 -6 -5 607.45 10.86
 -2 6 5 593.46 10.9
 2 -6 5 599.96 10.37
 2 6 -5 685.92 12.44
 -2 6 -5 632.75 11.52
 -2 6 6 13.23 1.53
 2 6 6 13.7 1.5
 2 6 -6 12.81 1.66
 -2 6 -6 13.17 1.55
 2 -6 6 10.88 1.4
 -2 -6 -6 14.63 1.73
 -2 6 6 13.76 1.52
 2 6 6 14.08 1.51
 2 6 -6 14.3 1.88
 2 -6 -6 13.83 1.72
 -2 -6 -6 12.1 1.57
 2 6 6 13.39 1.61
 -2 6 6 11.86 1.65
 -2 6 -6 13.52 1.59
 -2 -6 6 11.72 1.57
 2 -6 6 12.17 1.58
 -2 6 7 80.35 3.88
 2 6 7 81.79 3.78
 -2 -6 7 78.81 4.15
 2 -6 7 78.84 4.04
 -2 -6 -7 85.98 4.29
 2 6 -7 80.69 4.43
 2 -6 -7 79.99 4.19
 -2 -6 -7 83.51 4.22
 2 6 7 84.06 3.78
 -2 6 7 76.83 4.08
 -2 6 -7 84.45 4.01
 -2 6 -7 85.28 4
 2 6 -7 89.05 4.3
 2 -6 7 81.2 3.83
 2 6 7 82 3.97
 2 -6 8 1.84 0.67
 -2 -6 -8 1.64 0.63
 2 -6 -8 2.18 0.77
 -2 -6 -8 1.8 0.65
 -2 6 -8 1.5 0.61
 2 6 -8 1.15 0.57
 2 -6 -8 1.96 0.65
 2 -6 8 2.31 0.69
 -2 6 8 1.56 0.58
 -2 6 -8 1.86 0.62
 2 6 -8 1.55 0.59
 -2 6 8 1.68 0.58
 2 6 8 1.15 0.49
 -2 7 0 4173.57 23.01
 2 7 0 4035.63 20.93
 2 7 0 3900.62 23.57
 -2 7 0 3988.68 21.86
 2 -7 0 4022.36 23.92
 -2 -7 0 4050.49 22.14
 2 -7 0 4087.08 21.21
 -2 7 0 4190.67 23.77
 2 -7 1 550.36 8.2
 -2 -7 1 535.63 8.78
 -2 -7 -1 519.53 8.25
 2 -7 -1 514.33 7.67
 2 7 -1 549.36 9.57
 -2 7 1 562.59 8.43
 -2 -7 1 579.54 8.28
 2 -7 1 558.82 8.98
 2 -7 1 533.14 8.48
 -2 -7 1 524.12 7.08
 -2 7 -1 543.26 8.41
 2 7 -1 543.6 8.84
 2 -7 -1 542.78 9.25
 -2 -7 -1 529.5 9.22
 2 7 1 613.44 9.24
 -2 7 1 556.01 7.75
 -2 -7 -1 648.97 8.73
 2 -7 -1 532.22 8.89
 -2 7 -1 548.42 8.21
 2 7 1 605.38 8.7
 2 7 -1 583.37 8.5
 -2 -7 -2 619.29 9.23
 2 -7 -2 625.47 10.34
 -2 7 -2 595.02 9.34
 2 7 -2 571.05 9.53
 2 -7 2 547.28 8.83
 -2 -7 2 555.26 7.78
 -2 7 -2 538.61 9.05
 2 7 -2 599.8 10.21
 -2 -7 2 599.74 8.75
 2 -7 2 607.33 9.58
 2 -7 -2 602.03 9.16
 -2 -7 -2 585.1 9.15
 2 -7 2 596.36 8.99
 -2 -7 2 554.45 9.37
 -2 7 2 602.89 8.61
 -2 7 -2 614.34 8.75
 -2 7 2 604.1 9.2
 2 7 2 607.13 9.15
 2 7 -2 617.84 7.01
 2 -7 -2 604.18 9.99
 -2 -7 -2 591.54 9.55
 2 7 -2 664.23 8.67
 -2 7 2 588.13 9.28
 2 7 2 627.12 9.53
 2 7 -3 14.4 1.59
 -2 7 -3 14.78 1.55
 -2 -7 3 13.89 1.42
 2 -7 3 14.35 1.51
 2 7 -3 13.63 1.68
 -2 7 -3 17.97 1.84
 2 -7 -3 15.35 1.63
 -2 -7 -3 14.36 1.56
 2 -7 -3 14.23 1.64
 2 -7 3 15.99 1.63
 -2 -7 3 13.86 1.37
 -2 7 -3 15.09 1.58
 2 7 -3 13.6 1.58
 2 7 3 17.53 1.63
 -2 7 3 16.14 1.6
 2 7 -3 15.87 1.12
 -2 -7 -3 14.8 1.55
 2 -7 -3 14.11 1.52
 -2 7 3 12.93 1.37
 -2 -7 3 16.49 1.76
 2 -7 3 15.17 1.62
 2 7 3 13.47 1.44
 -2 7 -3 15.39 1.42
 2 7 3 13.91 1.4
 -2 7 3 16.56 1.38
 2 7 -4 0.27 0.31
 -2 7 -4 0.07 0.18
 -2 -7 -4 0.94 0.42
 2 -7 -4 0.04 0.16
 2 -7 4 0.19 0.27
 2 7 4 0.12 0.22
 -2 -7 4 0.03 0.21
 2 -7 -4 0.23 0.29
 -2 -7 -4 0.24 0.27
 -2 7 -4 0.16 0.25
 -2 -7 -4 0.09 0.17
 2 7 -4 1.84 0.63
 -2 7 4 0.59 0.34
 2 7 4 0.06 0.16
 -2 7 -4 -0.03 0.21
 2 7 -4 0.25 0.28
 2 7 4 1.54 0.5
 2 -7 4 0.04 0.18
 -2 -7 -4 1.24 0.51
 -2 -7 4 0.31 0.37
 -2 7 4 0.63 0.35
 -2 7 -4 0.05 0.14
 2 7 4 0.3 0.24
 2 -7 5 16.9 1.74
 -2 7 -5 15.23 1.81
 2 7 -5 16.94 2
 -2 -7 -5 17.15 1.85
 2 -7 -5 17.29 1.89
 -2 -7 5 15.69 1.64
 2 -7 -5 17.75 1.98
 -2 7 5 15.98 1.68
 2 7 5 15.92 1.79
 2 7 -5 16.45 1.88
 -2 7 -5 15.21 1.7
 2 -7 5 19.52 1.99
 -2 -7 5 16.45 1.75
 2 -7 -5 17.08 1.9
 -2 -7 -5 16.84 1.82
 -2 7 5 15.89 1.68
 2 7 5 17.46 1.74
 -2 -7 5 16.93 2.01
 2 -7 5 23.18 2.1
 2 7 5 17.79 1.68
 -2 -7 -5 15.56 1.56
 -2 7 -5 17.09 1.76
 2 7 -5 18.94 1.99
 -2 7 5 16.58 1.67
 2 -7 -6 419.43 9.6
 -2 7 6 375.24 7.98
 2 7 6 380.02 7.83
 2 7 -6 379.07 9.95
 -2 7 -6 360.84 9.22
 -2 -7 6 366.52 8.06
 2 -7 -6 391.88 9.3
 -2 -7 -6 396.14 9.17
 -2 7 6 378.64 8.27
 2 7 6 383.23 8.06
 2 7 -6 381.22 9.21
 -2 7 -6 373.42 8.46
 -2 -7 -6 371.7 8.75
 2 -7 -6 358.3 8.87
 2 -7 6 378.94 8.39
 2 7 -6 413.61 9.35
 -2 7 -6 393.29 8.61
 2 -7 6 383.1 8.87
 -2 -7 6 353.46 8.53
 -2 7 6 369.62 9.04
 2 -7 7 16.2 1.86
 -2 7 -7 18.4 2.12
 2 7 -7 17.23 2.1
 -2 -7 -7 18.27 1.99
 2 -7 -7 16.02 2.04
 2 -7 -7 17.6 2.02
 -2 -7 -7 17.36 1.94
 2 7 -7 17.81 1.98
 2 -7 7 18.03 1.85
 -2 7 7 14.99 1.87
 -2 7 7 17.74 1.8
 2 7 7 17.92 1.77
 -2 -7 7 18.25 1.86
 2 -7 8 306.14 8.22
 -2 -7 -8 321.39 8.23
 2 -7 -8 298.73 9.03
 2 7 8 319.11 7.82
 -2 7 8 274.89 7.43
 -2 7 -8 319.41 8.82
 2 7 8 343 7.73
 -2 7 8 322.43 7.77
 -2 7 -8 306.24 7.72
 2 7 -8 348.32 8.85
 2 8 0 3.06 0.69
 2 -8 0 1.8 0.59
 -2 -8 0 1.86 0.48
 -2 -8 0 1.91 0.53
 -2 8 0 1.58 0.48
 -2 -8 0 2.05 0.57
 2 -8 0 1.76 0.5
 2 8 0 1.97 0.55
 2 8 0 2.32 0.54
 2 8 1 432.89 8.15
 -2 8 1 418.79 7.17
 2 8 -1 414.08 7.75
 2 8 1 450.41 8.21
 -2 8 -1 425.25 8.29
 2 8 -1 428.18 8.88
 2 -8 -1 406.94 8.51
 -2 -8 -1 425.72 8.73
 -2 -8 -1 442.85 7.79
 2 -8 -1 414.28 8.34
 2 -8 1 403.11 8.09
 -2 -8 1 412.21 7.57
 2 -8 -1 406.38 7.29
 -2 -8 -1 407.6 7.73
 -2 -8 1 411.36 8.05
 2 -8 1 417.09 7.6
 -2 -8 1 404.79 6.8
 2 8 -1 407.82 8.08
 -2 8 -1 408.46 7.78
 2 8 -1 416.52 6.71
 -2 8 -1 413.05 7.47
 -2 8 1 442.83 8.1
 -2 -8 2 107.53 3.6
 2 -8 2 101.42 3.98
 -2 8 -2 104.86 3.76
 2 8 -2 105.71 4.56
 -2 8 -2 111.95 4.37
 -2 8 2 97.63 4.02
 2 8 2 107.98 4.09
 2 8 -2 103.86 3.73
 2 8 2 108.47 4.05
 -2 8 2 116.44 3.88
 2 -8 -2 108.89 4.13
 -2 -8 2 108.64 4.29
 -2 -8 -2 107.18 4.09
 -2 8 2 111.76 4.14
 2 8 -2 106.16 3.24
 2 8 2 114.81 4.14
 2 -8 -2 108.67 4.55
 -2 -8 -2 102.72 4.19
 -2 8 -2 105.37 4.14
 2 8 -2 113.34 4.43
 -2 -8 -2 123.36 4.39
 2 -8 -2 108.35 4.52
 2 -8 2 104.04 4.01
 -2 -8 2 111.42 4
 2 -8 2 109.15 4.18
 2 -8 -3 863.6 12.36
 -2 8 -3 872.13 11.16
 -2 -8 -3 844.72 12.04
 2 -8 -3 824.74 12.73
 2 -8 3 815.14 11.79
 -2 -8 3 783.69 10.7
 -2 8 -3 809.25 12.08
 2 8 -3 811.68 13
 2 -8 3 837.09 11.91
 -2 -8 3 835.64 11.35
 -2 8 3 815 11.41
 2 -8 3 789.96 11.78
 -2 -8 3 732.92 11.91
 2 8 -3 798.53 12.33
 2 8 3 801.35 11.3
 -2 8 3 730.25 10.72
 2 8 3 824.32 11
 -2 8 3 828.82 10.18
 2 8 -4 154.14 5.5
 -2 8 -4 143.99 5.19
 -2 8 -4 135.03 5.38
 2 8 -4 135.62 5.74
 -2 -8 -4 137.78 5.09
 2 -8 -4 150.17 5.47
 -2 8 -4 143.98 4.66
 -2 -8 -4 156.08 5.58
 2 -8 -4 158.78 5.8
 2 8 4 125.99 4.45
 -2 8 4 146.39 4.86
 -2 8 4 169.74 5.15
 -2 -8 4 141.47 4.83
 2 -8 4 154.86 5.44
 2 8 -4 159.35 5.79
 -2 8 -4 135.64 5.05
 2 8 4 144.17 4.9
 -2 -8 -4 149.43 4.98
 -2 -8 -4 147.55 5.24
 2 -8 -4 152.31 5.48
 2 8 4 147.36 4.75
 2 -8 4 146.07 5.13
 -2 -8 4 143.8 4.88
 2 8 4 143.9 4.79
 -2 -8 4 146.3 5.56
 2 -8 4 145.76 5.35
 -2 8 4 152.78 5.18
 2 8 -5 640.15 12.68
 -2 8 -5 599.96 11.86
 2 -8 -5 671.34 11.92
 -2 -8 -5 626.89 11.06
 -2 -8 -5 683.31 11.7
 2 -8 -5 667.01 11.94
 2 8 5 651.86 10.5
 2 8 -5 652.75 12.25
 -2 -8 -5 634.27 10.29
 -2 -8 5 686.2 11.39
 -2 8 5 629.11 10.84
 2 8 5 621.37 10.87
 -2 8 -5 671.62 11.24
 2 -8 5 636.8 12.2
 -2 -8 5 632.31 12.17
 2 -8 5 653.04 11.08
 -2 8 5 693.86 11.09
 2 8 5 692.69 10.73
 2 -8 -5 739.48 12.84
 -2 8 5 692.3 11.12
 -2 -8 6 57.25 3.43
 2 8 -6 58.2 3.79
 -2 8 -6 58.61 3.41
 2 8 6 53.45 3.38
 2 8 -6 60.15 3.61
 -2 8 -6 58.18 3.37
 2 8 6 60.95 3.28
 -2 8 6 58.97 3.3
 -2 8 -6 55.06 3.58
 2 8 -6 57.07 3.76
 2 -8 6 56.95 3.27
 -2 -8 6 59.33 3.31
 2 -8 6 58.56 3.52
 2 -8 -6 56.94 3.57
 -2 8 6 58.1 3.17
 2 8 6 59.2 3.1
 -2 -8 6 50.3 3.56
 2 -8 7 58.78 3.54
 -2 -8 7 52.37 3.35
 -2 8 7 50.77 3.08
 2 8 7 52.32 3
 2 -8 -7 53.9 3.47
 2 -8 -7 52.99 3.59
 -2 -8 -7 44.94 3.21
 -2 8 -7 49.53 3.51
 2 8 -7 52.43 3.59
 2 -8 7 49.36 3.14
 -2 8 -7 52.19 3.33
 2 8 7 50.64 3.17
 2 8 7 53.37 3.03
 2 8 -7 57.23 3.57
 -2 8 -7 54.09 3.25
 -2 -8 7 40.14 3.27
 2 8 -8 0.13 0.23
 2 -9 0 1541.21 16.41
 2 9 0 1567.11 15.91
 -2 -9 0 1601.78 16.13
 2 -9 0 1663.19 15.5
 2 9 0 1582.36 16.16
 -2 9 0 1579.26 15.42
 2 -9 0 1640.37 17.33
 -2 -9 0 1651.68 16.15
 -2 9 0 1583.99 15.32
 -2 -9 0 1537.2 14.54
 -2 9 0 1632.65 17.06
 2 9 -1 0.1 0.17
 -2 9 -1 0.03 0.14
 2 9 1 0.03 0.14
 2 -9 1 -0.03 0.17
 -2 -9 1 0.26 0.22
 -2 -9 -1 0.11 0.22
 2 -9 -1 0.03 0.21
 -2 -9 1 0.06 0.19
 -2 -9 -1 0.09 0.22
 2 -9 -1 0.08 0.19
 2 -9 1 0.15 0.21
 -2 9 -1 0.28 0.23
 -2 9 1 -0.03 0.15
 2 9 -1 0.1 0.14
 2 9 1 0.21 0.2
 -2 9 -1 0.07 0.15
 2 9 -1 0.04 0.15
 -2 9 1 0.03 0.15
 -2 -9 -1 0.32 0.3
 2 9 -1 0.27 0.24
 2 9 1 -0.03 0.12
 -2 -9 1 0.09 0.18
 2 -9 1 0.03 0.2
 2 -9 2 618.98 10.56
 -2 -9 2 616.27 9.72
 -2 9 -2 589.96 10.09
 2 9 -2 568.68 10.54
 -2 9 2 535.79 9.4
 -2 9 -2 637.69 9.77
 2 9 -2 632.51 8.56
 2 9 2 611.94 10.11
 2 -9 2 611.03 10.08
 2 -9 -2 599.77 10.13
 -2 -9 -2 634.67 10.49
 -2 -9 2 582.5 10.43
 -2 9 2 572.26 9.93
 2 9 -2 649.29 10.04
 2 9 2 616.43 10.23
 -2 9 2 653.32 10.03
 2 9 2 619.49 9.95
 2 -9 2 607.4 10.14
 -2 -9 2 592.7 9.02
 -2 -9 -2 578.62 10.59
 -2 9 -2 557.29 10.27
 2 9 -2 634.49 11.31
 2 -9 -2 533.3 10.2
 -2 -9 -2 597.38 10.06
 -2 9 -3 2.41 0.64
 -2 9 3 1 0.43
 2 -9 -3 0.49 0.36
 -2 -9 -3 0.54 0.38
 -2 9 3 0.65 0.32
 2 9 3 0.44 0.31
 2 9 -3 0.34 0.28
 2 9 3 0.42 0.31
 -2 9 3 0.22 0.22
 -2 9 -3 2.98 0.76
 -2 -9 3 0.46 0.27
 2 -9 -3 0.38 0.35
 2 -9 3 0.54 0.37
 -2 -9 -3 0.85 0.46
 2 -9 3 2.34 0.69
 -2 -9 -3 0.31 0.33
 -2 -9 3 0.48 0.39
 2 -9 -3 0.62 0.37
 -2 -9 4 0.1 0.23
 2 -9 4 0.15 0.29
 2 -9 -4 0.25 0.33
 -2 -9 -4 0.32 0.37
 -2 -9 4 1.19 0.49
 2 -9 -4 0.32 0.28
 2 9 4 0.3 0.26
 -2 9 -4 0.22 0.25
 2 9 -4 0.08 0.19
 2 -9 -4 0.36 0.34
 2 -9 4 0.19 0.24
 -2 -9 -4 0.37 0.32
 -2 9 -4 0.18 0.23
 2 9 4 0.36 0.27
 -2 9 4 0.29 0.24
 2 9 -5 6.46 1.36
 -2 9 -5 5.87 1.21
 -2 -9 -5 7.25 1.24
 2 -9 -5 7.46 1.32
 2 9 5 8.38 1.23
 -2 -9 -5 8.22 1.22
 2 -9 5 8.19 1.3
 -2 -9 5 6.88 1.15
 -2 9 5 8.03 1.26
 2 9 5 7.08 1.17
 -2 9 -5 7.97 1.3
 2 9 -5 7 1.32
 2 9 5 7.72 1.16
 -2 9 5 8.46 1.25
 -2 -9 5 7 1.32
 2 -9 5 7.56 1.3
 2 9 -5 7.64 1.28
 -2 9 -5 7.79 1.25
 2 -9 -5 7.93 1.38
 2 -9 -5 7.59 1.3
 -2 -9 -5 7.07 1.22
 -2 -9 5 9.14 1.3
 2 -9 5 7.98 1.26
 -2 9 5 7.35 1.17
 -2 -9 -6 236.69 7.07
 2 9 6 235.84 6.5
 -2 9 -6 230.8 6.89
 2 9 -6 216.25 7.42
 2 -9 6 223.86 6.82
 2 9 6 221.39 6.94
 -2 9 6 199.54 6.47
 2 9 -6 221.21 7.59
 2 -9 6 213.83 7.18
 -2 -9 6 205.14 7.29
 2 9 -6 236.66 7.18
 -2 9 -6 233.45 6.85
 2 -9 -6 241.57 7.66
 -2 -9 -6 217.87 6.74
 2 -9 -6 209.77 6.77
 2 9 6 228.78 6.21
 -2 9 6 221.3 6.36
 -2 -9 6 236.62 6.67
 2 -9 6 232.87 6.75
 -2 -9 -7 8.03 1.33
 2 9 -7 8.47 1.37
 -2 9 -7 8.7 1.35
 2 9 -7 8.64 1.5
 -2 9 -7 7.91 1.43
 -2 -9 7 9.27 1.36
 2 -9 7 8.93 1.33
 -2 9 7 8.95 1.31
 2 9 7 8.48 1.21
 2 -9 7 7.56 1.44
 -2 -9 7 7.52 1.39
 2 -9 7 8.29 1.36
 -2 9 7 7.37 1.3
 -2 -9 -7 8.15 1.31
 2 -9 -7 8.34 1.37
 2 -10 0 0.18 0.29
 -2 10 0 0.28 0.27
 2 10 0 0.33 0.3
 2 10 0 0.23 0.27
 -2 10 0 0.22 0.24
 2 -10 0 0.34 0.33
 -2 -10 0 0.1 0.22
 -2 -10 0 0.53 0.35
 2 -10 0 0.28 0.28
 -2 10 -1 162.85 5.38
 2 10 -1 165.38 5.64
 -2 10 1 161.17 4.98
 2 -10 -1 156.88 5.05
 2 -10 1 169.01 5.31
 -2 -10 1 161.16 5.37
 -2 -10 -1 162.52 5.31
 -2 -10 -1 161.33 5.26
 2 10 -1 167.22 6.12
 2 10 1 142.86 5.05
 -2 10 1 177.61 5.68
 2 10 -1 156.38 5.23
 -2 10 1 169.39 5.83
 -2 10 -1 169.53 5.79
 2 -10 1 159.72 5.55
 -2 -10 1 166.97 5.35
 2 -10 -1 167.78 5.88
 -2 -10 -1 166.92 5.89
 -2 10 1 161.18 5.21
 2 10 1 169.72 5.38
 -2 10 -1 162.23 5.21
 -2 10 -2 63.13 3.66
 2 10 -2 66.77 3.94
 2 -10 -2 69.46 3.56
 -2 -10 2 66.71 3.61
 -2 -10 -2 70.75 3.65
 2 10 2 66.21 3.35
 -2 10 2 68.35 3.35
 2 -10 2 64.12 3.41
 -2 -10 2 66.92 3.2
 2 10 -2 66.18 3.65
 -2 10 -2 62.66 3.42
 -2 -10 -2 65.39 3.65
 -2 -10 -2 67.35 3.54
 2 -10 -2 69.08 3.84
 -2 10 2 65.34 3.48
 2 10 2 71.55 3.62
 2 10 -2 62.47 3.32
 -2 10 2 66.65 3.44
 2 10 2 65.08 3.39
 -2 10 -2 68.03 3.32
 2 10 -2 62.2 2.88
 2 -10 2 67.13 3.7
 2 -10 -3 1157.36 15.7
 -2 -10 -3 1211.76 15.73
 -2 10 -3 1157.27 14.93
 2 10 -3 1171.9 15.7
 -2 -10 3 1163.15 13.8
 2 -10 3 1144.11 14.66
 2 -10 3 1107.18 14.54
 -2 10 -3 1171.59 15.73
 2 10 -3 1106.37 16.33
 2 10 3 1180.21 14.75
 2 10 3 1093.94 13.4
 -2 10 -3 1154.08 13.5
 -2 10 3 1124.76 14.17
 -2 -10 -3 1136.1 15.08
 2 -10 -3 1125.67 15.95
 -2 -10 3 1218.41 14.85
 2 -10 3 1140.52 15.05
 2 -10 -3 1183.09 15.61
 2 10 -3 1169.85 14.17
 2 10 3 1161.45 14.64
 -2 10 3 1126.11 14.25
 -2 -10 -3 1177.77 15.07
 -2 -10 3 1103.84 15.1
 2 10 4 47.43 2.93
 -2 -10 -4 57.58 3.58
 2 -10 -4 54.61 3.55
 -2 10 -4 53.14 3.3
 2 10 -4 48.91 3.28
 -2 -10 4 56.22 3.18
 -2 10 -4 48.66 3.21
 2 10 -4 51.97 3.54
 2 10 4 56.81 3.22
 2 10 4 49.92 2.92
 -2 -10 -4 50.91 3.24
 2 -10 -4 50.87 3.37
 -2 -10 -4 47.71 3.16
 2 -10 -4 49.61 3.33
 -2 10 4 46.22 2.89
 -2 10 4 49.65 3.07
 2 -10 4 52.2 3.27
 -2 -10 4 49.75 3.35
 2 -10 4 50.78 3.19
 2 -10 5 320.61 8.18
 2 10 5 308.54 7.53
 -2 10 -5 316.97 8.07
 2 10 -5 331.73 8.62
 2 10 -5 293.81 8.77
 2 10 5 324.92 7.68
 -2 -10 -5 311.84 8.02
 -2 10 5 302.37 7.61
 -2 10 5 309.99 7.59
 2 -10 5 303.12 8.31
 -2 -10 5 305.22 8.71
 2 -10 -5 327.57 8.76
 -2 -10 5 354.96 8.22
 2 -10 5 319.38 8.09
 2 -10 -5 348.14 9
 -2 -10 -5 365.42 9.24
 2 10 -6 46.88 3.23
 -2 -10 6 44.38 2.94
 2 -10 6 44.55 3.1
 -2 10 6 43.81 3
 2 -10 -6 49.11 3.48
 2 -10 6 40.23 3.14
 -2 -10 -6 48.86 3.32
 2 -10 -6 50.44 3.48
 -2 10 -6 38.91 3.15
 -2 10 6 47.28 2.95
 2 10 6 47.38 2.83
 2 10 -6 45.4 3.46
 -2 10 -6 48.11 3.21
 2 10 -7 52.62 3.42
 -2 10 -7 52.93 3.39
 -2 -10 7 51.99 3.16
 2 -10 -7 52 3.54
 -2 10 -7 45.98 3.43
 2 -10 7 52.62 3.36
 2 10 7 52.12 2.97
 2 -10 7 41.68 3.27
 -2 10 7 42.46 3.1
 2 11 0 778.98 11.38
 -2 11 0 793.24 11.85
 2 11 0 782.09 12.15
 2 -11 0 802.26 12.76
 2 -11 0 768.27 13.01
 -2 -11 0 828.86 12.49
 2 -11 0 802.74 13.31
 -2 11 0 770.09 12.77
 2 11 0 758.33 11.92
 -2 -11 0 827 11.93
 2 -11 1 126.02 5.02
 -2 -11 1 120.27 4.52
 -2 -11 -1 129.61 5.26
 2 -11 -1 110.97 4.92
 -2 11 1 128.37 5.2
 2 11 -1 120.58 5.57
 2 11 1 124.02 4.74
 -2 11 1 117.44 4.61
 2 11 -1 119.39 4.41
 -2 11 -1 111.69 4.45
 -2 11 1 118.93 4.49
 2 11 -1 118.06 4.92
 2 11 1 112.12 4.74
 -2 11 -1 120.62 4.8
 -2 -11 -1 116.25 4.62
 2 -11 1 118.41 4.61
 -2 -11 1 122.59 4.77
 2 -11 -1 119.66 4.65
 -2 11 1 128.87 4.97
 2 11 1 127.18 4.85
 2 11 -1 124.59 4.84
 2 -11 -1 124.84 5.1
 -2 -11 -1 102.7 4.44
 -2 11 -1 123.52 5.12
 2 -11 1 120.76 4.98
 -2 -11 1 117.52 4.76
 -2 -11 2 441.28 8.71
 2 -11 2 444.3 9.25
 2 -11 -2 398.37 9.4
 -2 -11 -2 417.03 9.22
 2 -11 -2 463.81 10.07
 2 11 2 461.95 9.31
 -2 11 2 431.61 8.94
 -2 11 -2 479.6 9.17
 -2 11 2 487.86 9.38
 2 11 2 463.91 9.21
 2 -11 -2 465.49 9.65
 -2 -11 -2 462.6 9.57
 2 -11 2 436.36 9.2
 -2 11 -2 432.03 9.27
 2 11 -2 456.07 9.25
 -2 -11 2 460.83 9.44
 -2 -11 3 19.88 2.1
 2 -11 3 19.65 2.02
 -2 -11 -3 22.08 2.14
 -2 -11 -3 18.79 2.03
 -2 -11 -3 21.34 2.16
 -2 11 -3 23.23 2.28
 2 11 -3 20.46 2.29
 2 11 3 20.92 1.91
 2 11 3 21.12 2.04
 -2 11 3 17.35 1.87
 2 11 3 19.95 2.01
 -2 11 -3 22.38 1.98
 -2 11 3 20.01 1.94
 2 -11 3 20.73 2.04
 2 -11 -3 21.79 2.18
 2 -11 3 21.15 2.11
 -2 -11 3 20.28 1.98
 -2 11 -3 19.52 2
 2 11 -3 19.27 2.07
 2 -11 4 0.28 0.34
 -2 -11 4 0.59 0.42
 2 11 4 0.25 0.25
 2 -11 -4 0.82 0.49
 -2 -11 -4 0.2 0.3
 2 -11 4 0.56 0.39
 2 -11 -4 0.13 0.26
 -2 -11 4 0.98 0.52
 2 -11 4 0.35 0.35
 2 -11 -4 0.22 0.38
 -2 -11 -4 0.4 0.39
 2 11 4 0.55 0.36
 -2 11 4 0.38 0.3
 2 11 -4 0.64 0.43
 -2 11 -4 0.29 0.32
 2 11 4 0.36 0.31
 -2 11 -4 0.43 0.33
 2 -11 5 0.2 0.28
 2 11 5 0.07 0.17
 -2 -11 5 0.52 0.39
 2 -11 5 0.24 0.34
 2 -11 -5 0.36 0.38
 -2 -11 -5 0.83 0.46
 -2 -11 5 0.22 0.32
 -2 11 5 0.21 0.24
 2 11 5 0.23 0.24
 2 11 -5 1.26 0.59
 -2 11 -5 1.04 0.51
 2 -11 -5 0.47 0.37
 -2 -11 -5 0.04 0.22
 2 11 5 0.18 0.24
 -2 11 5 0.78 0.42
 2 11 -5 0.26 0.32
 -2 11 -5 0.84 0.47
 -2 11 -6 177.41 6.3
 2 11 -6 156.8 6.35
 -2 11 6 177.14 5.76
 2 11 6 183.99 5.76
 -2 -11 -6 173.27 6.08
 2 -11 -6 171.11 6.28
 -2 11 -6 181.53 6.22
 2 11 -6 177 6.37
 2 11 6 178.04 5.58
 2 -11 -6 174.91 6.69
 -2 -11 -6 174.62 6.17
 -2 11 6 151.13 5.49
 -2 -11 6 163.66 6.24
 2 -11 -6 194.19 6.87
 -2 -11 6 173.92 5.9
 2 -11 6 185.52 6.16
 2 -12 0 0.04 0.21
 -2 -12 0 0.2 0.3
 2 -12 0 0.04 0.24
 2 12 0 0.94 0.46
 2 -12 0 0.04 0.24
 2 12 0 0.24 0.3
 -2 12 0 0.07 0.18
 2 -12 1 115.13 4.99
 2 -12 -1 114.13 4.77
 2 -12 1 112.45 4.77
 -2 12 1 111.1 4.48
 2 -12 -1 108.8 5.18
 -2 -12 -1 112.52 5.27
 2 12 -1 120.75 5.23
 -2 12 1 115.11 4.97
 -2 12 -1 108.87 4.69
 -2 -12 1 113.52 4.84
 2 -12 -1 116.01 5.06
 2 12 1 115.92 4.8
 -2 12 1 114.5 4.89
 2 12 -1 116.53 4.82
 -2 12 -1 119.86 4.71
 2 12 1 108.7 4.56
 2 12 -2 41.12 2.99
 -2 12 -2 40.12 2.91
 2 -12 2 44.99 3.15
 -2 -12 2 43.62 3
 2 -12 -2 40.12 3.07
 2 12 -2 43.1 3.3
 -2 12 -2 42.98 3.15
 2 12 2 39.81 2.83
 2 12 -2 42.79 2.96
 -2 12 2 39.21 2.82
 -2 -12 -2 43.99 3.02
 2 -12 2 40.69 2.89
 2 -12 -2 42.38 2.99
 -2 12 -2 45.12 2.9
 -2 12 2 39.88 2.75
 2 -12 -2 37.34 2.95
 -2 -12 -2 44.52 3.18
 2 12 -3 515.29 11.3
 -2 12 -3 501.89 10.38
 2 12 3 498.48 10
 -2 12 3 527.96 10.06
 2 -12 3 523.67 10.41
 2 -12 -3 528.6 10.84
 2 -12 3 546.33 11.06
 -2 -12 3 541.2 10.56
 2 -12 -3 512.44 11.39
 2 -12 -3 518.76 11.09
 2 -12 3 506.39 10.36
 -2 -12 -3 518.07 10.5
 2 12 3 475.55 9.21
 2 -12 4 56.94 3.5
 -2 -12 -4 53.93 3.44
 2 -12 -4 53.05 3.55
 2 12 4 55.19 3.27
 -2 12 -4 54.1 3.52
 2 12 -4 51.2 3.59
 2 -12 -4 52.17 3.61
 -2 12 -4 53.1 3.37
 2 12 -4 51.86 3.49
 -2 -12 4 50.84 3.5
 2 -12 4 49.38 3.37
 -2 12 4 53.28 3.23
 2 12 4 59.42 3.34
 -2 -12 -4 51.91 3.38
 2 -12 -4 52.95 3.48
 -2 12 4 49.06 3.13
 2 -12 4 52.28 3.4
 2 -12 5 420.35 9.48
 2 -12 -5 448.7 10.53
 -2 -12 -5 425.37 9.72
 -2 -12 5 435.96 10.08
 2 -12 5 401.83 9.55
 -2 12 -5 393.74 9.43
 2 12 -5 328.73 9.36
 2 -12 -5 428.37 10.13
 -2 12 5 375.98 8.45
 2 -12 5 424.94 9.46
 -2 -12 5 419.47 9.23
 -2 12 -5 389.51 9.11
 2 12 -5 409.23 9.7
 -2 -12 -5 388.63 9.12
 2 12 5 347.49 8.14
 2 12 5 397.15 8.5
 2 12 -6 7.06 1.4
 -2 12 6 8.93 1.32
 2 -12 6 9.44 1.43
 2 -12 -6 8.83 1.52
 -2 12 6 7.31 1.2
 2 -12 6 8.65 1.45
 -2 13 0 797.34 12.61
 2 13 0 758.46 12.53
 -2 -13 0 869.13 13.68
 -2 13 0 825.43 14.16
 2 -13 0 899.46 14.45
 2 -13 0 746.66 13.57
 -2 -13 0 816.72 14.64
 -2 13 0 815.4 13.21
 2 13 0 784.25 12.98
 2 -13 0 822.06 14.04
 -2 13 -1 157.64 5.73
 -2 13 1 155.97 5.59
 2 -13 1 158.1 5.76
 -2 -13 1 174.29 6.04
 2 -13 -1 177.24 6.09
 -2 -13 -1 162.88 5.8
 -2 13 1 160.57 5.91
 2 13 1 168.62 5.93
 2 13 -1 179.81 6.14
 2 -13 -1 180.04 6.53
 2 -13 1 171.95 6.2
 2 -13 1 174.75 6.41
 -2 -13 1 166.62 6.08
 2 -13 -1 178.79 6.36
 -2 13 -1 171.36 6.32
 2 13 -1 158.61 5.84
 2 13 1 152.24 5.82
 -2 -13 -2 202.91 6.79
 2 -13 -2 196.86 6.85
 2 -13 2 195.57 6.57
 2 -13 2 204.53 6.61
 2 -13 -2 208.07 6.85
 -2 13 -2 193.84 6.55
 -2 -13 2 211.36 6.82
 -2 13 2 199.84 6.34
 -2 13 -2 202.67 6.92
 2 13 2 191.45 6.31
 2 13 2 194.2 6.07
 2 13 -2 198.31 6.73
 2 13 -2 192.16 7.02
 -2 -13 -3 1.43 0.64
 2 -13 -3 1.29 0.59
 2 13 3 1.47 0.56
 2 13 -3 1.57 0.65
 -2 13 -3 1.39 0.6
 2 -13 3 2.91 0.82
 2 13 3 1.2 0.54
 -2 13 3 1.34 0.54
 2 -13 3 1.99 0.7
 2 13 -3 1.61 0.68
 -2 13 -3 1.61 0.69
 -2 -13 3 0.96 0.5
 -2 -13 -3 1.3 0.57
 2 -13 -3 1.73 0.66
 2 13 3 1.67 0.6
 -2 13 3 1.64 0.61
 2 -13 3 1.65 0.64
 -2 -13 3 1.49 0.62
 2 13 -4 0.62 0.45
 -2 13 4 0.33 0.33
 2 13 4 0.22 0.28
 2 -13 4 0.56 0.46
 -2 -13 4 0.4 0.37
 2 -13 4 0.37 0.37
 2 -13 -4 0.47 0.39
 -2 13 -4 0.48 0.41
 2 -13 4 0.34 0.36
 2 -13 -4 0.56 0.47
 -2 -13 -4 0.34 0.34
 2 13 4 0.96 0.46
 -2 13 5 0.04 0.24
 2 13 5 0.39 0.31
 2 -13 -5 0.4 0.33
 2 -13 5 0.47 0.44
 -2 -13 -5 0.47 0.4
 -2 13 -5 0.85 0.47
 2 13 -5 0.14 0.26
 2 -13 -5 0.41 0.4
 -2 -13 5 0.28 0.29
 -2 14 0 2.23 0.7
 -2 14 0 1.63 0.62
 2 14 0 1.7 0.63
 2 -14 0 3.43 0.93
 -2 14 0 2.22 0.81
 -2 -14 0 2.36 0.76
 2 -14 0 2.04 0.69
 -2 14 0 2.45 0.74
 -2 -14 0 1.24 0.65
 -2 -14 0 1.55 0.68
 2 -14 0 1.91 0.76
 2 -14 1 83.89 4.54
 -2 -14 1 81.59 4.54
 2 -14 1 79.05 4.35
 -2 14 1 79.53 4.18
 2 14 1 87.72 4.33
 2 14 -1 82.14 4.34
 -2 14 -1 77.97 4.34
 -2 -14 1 78.22 4.2
 2 -14 1 89.51 4.47
 2 -14 -1 86.54 4.42
 -2 -14 -1 80.14 4.3
 -2 -14 -1 75.89 4.55
 2 -14 -1 81.49 4.6
 -2 14 1 87.06 4.28
 2 14 -1 77.57 4.11
 -2 14 -1 80.97 4.18
 2 14 1 76.51 4.04
 2 -14 -1 79.41 4.29
 2 -14 2 30.12 2.69
 -2 14 -2 32.93 2.72
 -2 14 2 30.07 2.46
 2 14 2 32.07 2.64
 -2 -14 -2 31.04 2.75
 -2 -14 2 33.02 2.74
 -2 14 -2 33.81 2.89
 2 14 -2 31.95 2.85
 2 -14 -2 36.42 3.04
 2 14 -2 33.9 2.82
 2 14 2 30.57 2.47
 2 14 2 30.44 2.55
 -2 14 2 31.93 2.57
 2 -14 -2 35.12 2.97
 -2 -14 -2 30.29 2.82
 2 14 3 374.48 8.87
 2 -14 3 414.85 9.84
 -2 -14 3 389.11 9.36
 2 14 -3 382.75 9.45
 -2 -14 -3 383.16 9.39
 -2 -14 3 380.39 9.17
 -2 -14 -3 372.45 9.3
 2 -14 -3 382.84 9.71
 -2 14 3 356.01 8.63
 2 -14 -3 357.84 9.47
 2 14 3 381.61 8.84
 -2 14 3 380.47 8.72
 2 14 -3 333.56 9.43
 -2 14 -3 323.87 8.97
 2 -14 -4 3.98 1.05
 -2 -14 -4 4.79 1.06
 -2 14 -4 4.65 1.05
 -2 -14 4 3.95 0.97
 2 -14 4 3.99 1
 -2 -14 4 3.73 0.97
 2 -14 -4 3.96 0.98
 2 14 -4 3.46 0.97
 2 14 4 3.81 0.9
 -2 14 4 4.36 0.93
 -2 -15 0 371.13 9.82
 -2 -15 0 400.7 9.36
 2 15 0 394.71 9.33
 -2 15 0 385.27 9.35
 2 15 0 381.32 9.05
 2 -15 1 32.12 2.88
 2 15 1 33.02 2.71
 2 -15 -1 30.5 2.79
 -2 -15 -1 31.66 2.85
 2 -15 1 26.61 2.71
 -2 -15 1 33.89 2.74
 -2 -15 -1 33.23 2.72
 -2 15 -1 28.37 2.73
 -2 15 1 33.64 2.66
 2 15 1 26.43 2.4
 -2 15 -1 30.26 2.63
 2 15 -1 29.68 2.56
 2 15 -2 193.02 6.6
 -2 15 2 202.6 6.5
 -2 15 -2 196.51 6.62
 -2 15 -2 174.1 6.48
 -2 -15 2 206.39 6.68
 -2 -15 -2 228 7.32
 2 -15 -2 207.63 7.24
 -2 -15 -2 204.59 7.1
 -2 15 2 189.27 6.22
 2 -15 2 220.51 7.42
 -2 15 3 0.12 0.2
 2 15 3 0.08 0.18
 -2 15 -3 0.35 0.35
 -2 -15 -3 -0.04 0.25
 2 -16 0 0.79 0.5
 2 16 0 0.7 0.41
 2 16 0 1.22 0.55
 -2 16 -1 49.54 3.35
 3 0 0 0.01 0.06
 -3 0 0 0.05 0.06
 -3 0 0 0.03 0.08
 3 0 0 0.33 0.14
 3 0 0 0.26 0.09
 -3 0 0 0.04 0.05
 -3 0 1 2491.53 11.66
 3 0 -1 2464.87 11.4
 3 0 1 2385.59 11.07
 -3 0 -1 2318.91 8.88
 -3 0 -1 2384.52 12.22
 3 0 1 2424.16 8.79
 -3 0 -1 2261.43 10.92
 -3 0 1 2410.8 9.04
 3 0 -1 2557.1 11.71
 -3 0 1 2293.38 8.36
 3 0 1 2386.93 12.54
 3 0 2 4807.82 19.49
 3 0 2 4775.07 17.13
 -3 0 2 4632.79 14.84
 3 0 -2 4468.37 14.1
 3 0 -2 4611.41 20.44
 -3 0 2 4499.59 8.94
 -3 0 -2 4428.61 19.83
 -3 0 2 4467.47 21.66
 -3 0 -2 4834.52 18.61
 3 0 -2 4737.87 21.41
 -3 0 -3 1510.29 13.82
 3 0 3 1474.58 12.34
 -3 0 3 1428.52 7.63
 3 0 -3 1505.51 10.25
 -3 0 3 1439.52 10.23
 3 0 3 1503.13 13.27
 -3 0 -3 1536.1 12.34
 -3 0 3 1458.31 13.87
 -3 0 -3 1535.72 12.66
 3 0 -3 1377.67 13.31
 3 0 -4 1437.4 9.11
 -3 0 4 1435.2 9.11
 3 0 4 1483.68 13.4
 3 0 -4 1409.78 11.58
 -3 0 4 1422.35 11.85
 -3 0 -4 1486.65 14.34
 3 0 -4 1491.31 15.52
 -3 0 4 1476.89 15.38
 3 0 4 1463.88 13.14
 3 0 -5 299.69 4.95
 -3 0 -5 348.88 7.25
 -3 0 -5 325.13 7.26
 3 0 5 320.37 6.73
 -3 0 5 298.78 4.66
 3 0 -5 308.28 7.87
 3 0 -5 323.5 6.42
 3 0 5 296.38 6.49
 -3 0 5 312.24 7.54
 -3 0 5 302.67 6.14
 3 0 5 298.14 6.94
 -3 0 -5 322.82 6.48
 -3 0 -5 327.12 7.79
 -3 0 -6 399.51 8.09
 3 0 6 355.14 7.43
 -3 0 6 371.55 8.49
 -3 0 -6 354.73 8.16
 -3 0 6 389.19 7.69
 3 0 6 371.93 8.09
 -3 0 -6 367.74 7.28
 3 0 -6 353.46 7.32
 3 0 -6 330.31 8.1
 3 0 6 406.37 8.18
 -3 0 -6 383.92 9.15
 3 0 7 274.15 6.98
 -3 0 -7 278.4 6.95
 -3 0 -7 243.42 6.89
 3 0 -7 232.51 7.19
 -3 0 -7 282.68 6.61
 -3 0 -7 268.22 7.86
 3 0 7 250 6.49
 -3 0 7 251.16 7.12
 -3 0 8 11.02 1.52
 3 0 8 10.95 1.4
 3 0 -8 9.73 1.51
 -3 0 -8 10.47 1.49
 -3 0 -8 11.45 1.45
 3 0 8 10.84 1.44
 3 0 9 107.92 4.46
 -3 0 -9 116.31 4.88
 3 -1 0 0.07 0.09
 3 -1 0 0.1 0.1
 3 1 0 1.42 0.26
 -3 -1 0 1.6 0.29
 -3 1 0 0.07 0.09
 -3 -1 0 0.12 0.09
 3 -1 0 0.01 0.08
 3 1 0 1.37 0.28
 -3 1 1 2861.45 11.79
 3 1 -1 2887.23 12.09
 3 1 1 3146.76 14.83
 3 1 1 2973.58 13.81
 3 -1 1 2872.2 11.54
 3 1 -1 2795.78 13.04
 -3 1 -1 2906.12 9.75
 3 -1 -1 2930.59 12.8
 -3 -1 -1 2935.68 11.2
 3 -1 -1 2955.64 14.15
 3 1 -1 2877.32 11.23
 3 -1 1 2888.62 13.33
 3 1 1 2997.86 11.41
 -3 -1 -1 2984.12 12.83
 -3 1 -1 2887.56 11.83
 3 1 1 3000.85 14.44
 -3 1 -1 2969.4 14.42
 3 -1 1 2952.54 14.16
 3 1 1 2930.99 8.71
 -3 -1 1 2914.73 12.16
 -3 -1 1 2968.75 7.73
 -3 -1 -1 3054.47 14.19
 -3 -1 1 2995.45 13.11
 -3 1 2 328.92 5.68
 3 1 -2 298.93 3.94
 -3 1 2 349.84 4.7
 -3 -1 2 321.55 5.39
 3 -1 2 331.09 4.84
 3 -1 -2 321.94 3
 3 1 -2 320.96 4.44
 3 -1 -2 348.34 5.71
 -3 -1 -2 352.01 5.09
 3 1 -2 326.39 5.71
 3 -1 -2 297.18 5.19
 -3 1 -2 313.91 5.32
 -3 -1 -2 350.24 5.59
 3 -1 -2 315.43 5.49
 3 -1 -3 70.07 2.97
 -3 -1 -3 92.88 3.2
 3 1 3 82.9 2.8
 3 -1 3 77.45 2.8
 -3 -1 3 81.71 3.16
 3 -1 -3 73.48 3.12
 -3 1 3 77.87 3.49
 -3 1 3 78.65 2.59
 3 -1 3 80.56 3.05
 3 1 3 78.62 3.04
 -3 -1 3 67.97 2.06
 3 -1 3 75.28 3.04
 -3 1 -3 81.08 2.85
 -3 -1 -3 83.97 2.85
 3 -1 -3 75.72 3.17
 -3 -1 -3 80.81 3.17
 -3 1 -3 81.09 3.2
 3 1 3 84.8 2.93
 -3 1 3 69.52 2.01
 3 -1 -3 87.8 2.31
 3 1 -3 84.97 2.66
 3 1 -3 77.39 2.1
 3 1 -3 79.15 3.27
 -3 1 -3 85.63 3.1
 3 -1 3 76.09 2.79
 3 -1 -4 1612.43 8
 3 1 -4 1566.32 10.8
 3 1 -4 1606.31 13.25
 -3 1 4 1485.87 15.75
 3 -1 4 1666.85 15.25
 -3 1 4 1596.25 13.25
 3 1 4 1668.83 14.92
 -3 -1 4 1633.09 12.18
 -3 1 4 1607.34 11.07
 -3 -1 4 1535.27 7.6
 3 1 4 1660.86 14.23
 -3 -1 -4 1596.43 15.8
 3 -1 -4 1635.65 16.2
 -3 -1 -4 1594.92 14.83
 -3 -1 4 1511.32 15.22
 3 1 4 1615.05 14
 3 -1 4 1520.24 13.75
 -3 -1 -4 1717.51 14.06
 -3 1 -4 1677.22 15.1
 3 -1 -4 1608.55 11.84
 -3 1 -4 1681.94 15.54
 3 1 -4 1468.09 15.76
 3 -1 4 1619.82 14.37
 3 -1 -5 6.8 0.66
 -3 1 -5 3.06 0.7
 -3 1 -5 2.93 0.76
 -3 -1 -5 2.56 0.71
 -3 -1 5 2.96 0.62
 -3 1 5 4.09 0.75
 3 -1 5 3.31 0.73
 3 1 5 2.55 0.64
 3 -1 5 2.82 0.69
 3 -1 -5 4.73 0.96
 -3 -1 -5 2.42 0.63
 3 1 5 2.48 0.59
 -3 -1 -5 3.12 0.65
 -3 1 -5 3.07 0.67
 3 -1 -5 3.03 0.61
 3 1 -5 2.78 0.63
 -3 1 -5 2.66 0.68
 3 1 -5 2.48 0.72
 3 -1 5 2.44 0.62
 -3 -1 5 3.24 0.43
 -3 1 5 3.15 0.79
 3 -1 5 6.94 1
 -3 -1 5 3.35 0.79
 3 1 5 2.37 0.61
 -3 -1 -6 387.38 7.94
 -3 1 -6 377.07 7.95
 -3 -1 -6 360.53 8.65
 3 -1 6 347.05 7.86
 3 1 6 343.96 7.59
 -3 1 6 351.53 7.31
 3 -1 6 340.27 7.98
 -3 -1 -6 319.31 7.71
 3 -1 -6 331.79 8.18
 3 1 6 368.83 7.54
 -3 -1 -6 357.84 7.09
 3 -1 -6 398.12 7.71
 3 1 -6 359.24 7.58
 3 -1 6 364.93 7.73
 3 1 -6 310.46 8.05
 -3 1 -6 333.08 7.99
 3 -1 6 336.6 7.27
 3 1 6 340.69 7.34
 -3 -1 6 362.38 8.26
 -3 1 6 352.45 8.34
 3 1 7 180.46 5.63
 -3 1 -7 174.53 5.54
 -3 -1 -7 182.56 5.6
 -3 1 -7 160.07 5.7
 3 1 -7 156.03 5.86
 3 -1 -7 163.26 6.17
 -3 -1 -7 172.39 6.23
 3 -1 7 174.92 5.82
 3 1 7 170.05 5.58
 3 -1 7 165 5.35
 -3 1 7 167.93 5.94
 3 1 7 171.36 5.35
 -3 -1 7 164.59 5.74
 -3 -1 -7 157.87 5.58
 3 -1 7 163.23 5.58
 -3 -1 -7 188.97 5.4
 -3 1 -7 176.13 5.25
 -3 1 -8 7.44 1.28
 3 -1 -8 7.4 1.35
 3 1 -8 7.13 1.31
 -3 -1 -8 7.47 1.26
 -3 1 8 8.38 1.34
 3 -1 8 9.15 1.29
 -3 -1 8 7.68 1.26
 3 1 8 8.25 1.21
 -3 1 -8 9.18 1.27
 -3 -1 -8 9.43 1.31
 3 -1 8 7.54 1.24
 -3 -1 -8 8.06 1.43
 3 -1 8 8.12 1.26
 3 1 8 8.7 1.31
 -3 1 -9 85.01 3.84
 3 1 9 81.56 3.8
 -3 1 -9 73.46 3.9
 -3 -1 -9 82.38 4.15
 -3 2 0 0.39 0.16
 3 -2 0 0.94 0.27
 3 -2 0 0.12 0.13
 -3 2 0 0.03 0.09
 3 2 0 0.4 0.14
 -3 -2 0 0.41 0.17
 3 2 0 0.06 0.1
 -3 2 0 0.06 0.08
 3 -2 0 0.09 0.11
 3 2 0 0.69 0.2
 3 -2 1 4457.72 18.79
 3 2 1 4035.03 16.98
 3 2 -1 4211.4 16.78
 -3 2 -1 4193.01 16.85
 -3 2 -1 4302.11 13.96
 3 2 -1 4309.07 17.52
 3 -2 -1 4271.06 16.44
 -3 -2 -1 4211.38 15.33
 3 -2 -1 4113.94 17.78
 3 2 1 4350.7 18.9
 -3 2 1 4221.03 16.42
 3 -2 1 4193.93 17.66
 -3 -2 -1 4264.71 16.6
 3 2 1 4169.79 17.14
 -3 -2 -1 4205.36 17.97
 -3 -2 1 4147 13.55
 -3 2 -1 4269.86 17.09
 -3 -2 1 4488.48 17.5
 3 -2 1 3891.24 15.81
 -3 2 -2 238.26 4.31
 -3 -2 -2 231.99 4.48
 3 -2 -2 217.61 4.69
 3 2 2 229.8 3.94
 -3 -2 2 224.67 4.25
 3 -2 -2 247.03 5.13
 3 2 -2 202.79 3.93
 3 -2 2 236.33 4.82
 3 2 2 230.17 4.86
 3 2 -2 227.06 4.23
 -3 2 -2 238.01 4.58
 -3 -2 -2 240.84 4.68
 -3 2 -2 235.83 4.8
 -3 2 2 233.33 4.31
 3 2 2 243.68 4.68
 3 -2 -3 131.47 2.74
 -3 2 -3 152.56 4.32
 3 2 -3 135.86 4.39
 -3 2 -3 147.5 4.1
 3 -2 -3 132.32 4.22
 3 2 3 143.88 3.73
 3 -2 3 136.74 3.82
 -3 -2 3 138.1 3.95
 3 -2 -3 133.22 4.33
 3 2 -3 136.95 3.39
 3 -2 3 146.84 3.97
 -3 2 3 142.93 4.52
 3 -2 3 149.39 4.37
 3 -2 -3 125.86 4.13
 -3 -2 -3 164.58 4.62
 -3 -2 3 124.73 2.44
 3 2 3 144.31 4.17
 -3 2 -3 149.48 4.06
 -3 2 3 136.7 3.19
 -3 2 3 147.28 3.79
 3 2 -3 145.84 3.78
 3 2 3 152.62 4.18
 -3 -2 -3 166.21 4.16
 3 -2 -4 1218.48 14.81
 -3 2 4 1402.01 15.89
 3 -2 4 1349.22 13.21
 -3 -2 -4 1432.17 14.8
 3 -2 -4 1279.38 14.87
 3 2 4 1362.85 13.48
 -3 2 4 1316.21 12.77
 -3 -2 4 1200.03 9.91
 3 -2 4 1362.37 14.27
 3 2 -4 1314.94 11.17
 3 2 -4 1249.08 14.59
 -3 2 -4 1383.29 14.25
 -3 -2 -4 1266.42 12.07
 3 -2 -4 1360.29 7.03
 3 2 4 1414.88 13.32
 -3 -2 4 1307.52 13.63
 3 -2 4 1297.67 12.85
 3 -2 -4 1389.54 10.65
 -3 2 -4 1396.65 14.11
 3 2 -4 1375.74 13.02
 3 -2 -4 1186.31 13.93
 -3 -2 -4 1234.69 13.56
 3 2 5 285.66 6.53
 3 -2 5 284.92 6.59
 -3 -2 5 300.54 7.08
 -3 2 5 276.67 7.28
 3 -2 5 286.62 6.94
 3 2 5 291.9 6.61
 -3 -2 5 289.18 5.61
 -3 2 5 281.01 6.36
 3 2 -5 314.93 6.02
 3 -2 -5 301.44 7.86
 -3 -2 -5 331.26 7.74
 -3 -2 -5 300.72 7.17
 3 -2 -5 285.14 7.21
 -3 2 -5 298.18 6.45
 -3 -2 -5 303.15 6.34
 3 -2 -5 325.12 4.23
 3 2 -5 306.78 6.7
 -3 2 -5 303.19 6.79
 3 -2 -5 327.48 5.92
 -3 -2 5 280.72 3.54
 3 -2 5 308.82 6.69
 3 2 5 305.23 6.54
 -3 2 5 300.7 5.78
 3 2 -5 274.42 7.36
 -3 2 -5 285.05 7.12
 -3 -2 -6 387.24 8.44
 3 -2 -6 381.98 8.8
 -3 -2 -6 459.4 8.3
 -3 2 -6 387.5 7.62
 -3 -2 -6 413.85 9.24
 3 -2 -6 402.77 9.62
 -3 2 6 426.84 8.41
 3 2 6 399.95 8.25
 3 -2 6 396.21 8.42
 3 2 -6 422.05 8.4
 3 -2 6 416.81 8.28
 -3 2 -6 393.55 8.78
 3 2 -6 372.35 8.7
 -3 2 6 391.84 8.88
 -3 -2 6 418.44 8.77
 3 -2 6 389.78 8.01
 3 2 6 415.16 8.16
 3 -2 7 100.26 4.42
 3 2 7 104.86 4.2
 -3 2 7 102.77 4.35
 3 2 7 101.55 4.27
 3 -2 7 99.17 4.19
 -3 -2 7 105.21 4.53
 3 2 7 108.49 4.3
 -3 2 7 96.84 4.47
 -3 -2 -7 115.89 5.04
 -3 -2 -7 106.37 4.03
 -3 2 -7 100.38 3.99
 3 2 -7 89.47 4.41
 -3 2 -7 87.63 4.24
 3 -2 -7 92.97 4.56
 -3 -2 -7 99.65 4.46
 -3 -2 -7 115.77 4.51
 -3 2 -7 93.5 4.01
 -3 2 -8 7.77 1.18
 -3 -2 -8 8.02 1.22
 -3 -2 -8 6.2 1.14
 3 -2 8 7.74 1.25
 3 2 8 7.82 1.23
 3 2 -8 6.12 1.18
 3 -2 -8 6.46 1.25
 -3 2 -8 7.26 1.22
 -3 -2 8 7.62 1.23
 -3 2 8 6.97 1.21
 3 2 8 7.79 1.17
 3 -2 8 7.34 1.15
 -3 -2 -8 7.74 1.4
 3 2 9 113.23 4.41
 -3 2 -9 111.6 4.82
 -3 2 -9 113.97 4.56
 3 -3 0 0.03 0.12
 3 -3 0 0.06 0.13
 3 -3 0 0.28 0.2
 3 3 0 0.7 0.22
 -3 -3 0 0.28 0.16
 -3 3 0 0.21 0.15
 3 3 0 0.14 0.11
 -3 3 0 0.34 0.15
 3 3 0 0.35 0.2
 3 -3 0 0.18 0.12
 -3 3 0 0.01 0.09
 3 3 -1 5866.25 22.3
 -3 3 1 6040.68 12.54
 -3 3 -1 6045.85 20.62
 3 3 -1 5921.14 23.25
 -3 -3 1 6151.77 17.35
 3 -3 -1 6112.28 21.48
 -3 -3 -1 5604.42 21.3
 3 3 1 5957.93 21.41
 3 3 -1 5775.04 16.3
 3 3 1 5526.06 20.78
 -3 3 1 6086.54 16.76
 -3 3 -1 5660.38 20.52
 3 -3 -1 5889.79 17.96
 -3 -3 1 5933.63 22.26
 3 -3 1 5909.12 21.96
 -3 3 1 5997.41 21.71
 -3 -3 -1 5688.85 20.5
 3 -3 -2 419.21 3.29
 3 3 2 452.93 6.59
 3 3 -2 422.98 6.38
 -3 3 -2 410.89 6.33
 -3 3 -2 408.91 6.16
 3 3 -2 425.98 7.1
 3 -3 -2 410.84 6.73
 -3 3 -2 421.82 6.19
 3 -3 -2 410.69 7
 3 3 2 417.64 5.87
 3 -3 2 415.88 6.77
 3 3 2 424.48 6.49
 -3 -3 -2 430.84 6.78
 -3 -3 -2 474.29 6.93
 3 -3 -2 416.19 6.36
 3 3 -2 375.02 3.17
 3 3 2 420.01 6.29
 3 -3 2 389.97 6.56
 -3 3 2 446.57 6.41
 3 -3 2 418.19 6.17
 3 3 -2 411.43 6.3
 -3 -3 2 431.08 7.19
 -3 3 -3 92.33 3.33
 -3 3 -3 89.77 3.33
 3 3 -3 89.01 3.7
 3 -3 -3 86.75 3.48
 -3 -3 -3 92.83 3.44
 -3 -3 3 88.48 3.12
 3 -3 3 86.03 3.14
 3 -3 -3 84.26 3.56
 -3 3 3 90.29 3.2
 -3 3 3 80.41 3.25
 3 3 3 99.63 3.26
 3 -3 3 93.23 3.56
 3 -3 -3 85.1 3.38
 -3 -3 -3 102.15 3.66
 3 3 3 86.98 3.31
 3 -3 3 86.02 3.18
 3 3 -3 86.92 3.24
 -3 3 3 84.31 2.78
 -3 3 -3 86.49 3.06
 -3 -3 -3 87.61 3.14
 3 3 3 88.27 3.16
 3 3 -4 1100.72 14.28
 -3 3 -4 1214.69 13.76
 3 -3 -4 1172.08 14.11
 -3 -3 -4 1168.5 13.27
 3 3 4 1211.97 12.5
 -3 -3 4 1170.5 12.64
 3 -3 4 1134.67 12.32
 3 -3 -4 1130.49 14.22
 -3 3 4 1147.5 14.37
 -3 3 4 1236.32 12.85
 3 -3 4 1194.09 13.79
 3 3 4 1220.54 12.87
 3 -3 -4 1203.16 10.19
 -3 3 -4 1135.3 12.55
 -3 -3 -4 1230.62 14.15
 3 3 4 1206.08 12.43
 -3 3 4 1173.41 11.42
 3 3 -4 1220.58 12.86
 3 3 -4 1204.11 11.98
 3 -3 -4 1019.83 7.06
 -3 3 -4 1147.11 12
 3 -3 4 1170.11 12.43
 3 3 -5 108.9 3.88
 -3 3 5 98.83 4.47
 3 -3 -5 103.54 3.37
 3 -3 5 105.74 4.34
 -3 3 5 108.77 4.05
 3 -3 -5 103.25 4.59
 -3 3 -5 110.24 4.44
 3 3 -5 100.27 4.54
 -3 -3 5 106.37 4.11
 3 -3 5 105.01 4.02
 3 3 5 103.06 3.94
 3 3 5 108.68 3.93
 -3 3 5 111.73 3.7
 -3 -3 -5 104.65 3.72
 -3 3 -5 103.75 3.84
 -3 -3 -5 102.7 4.27
 3 -3 5 104.46 3.99
 3 3 -5 111.06 4.22
 3 -3 6 710.15 11.92
 3 3 -6 689.65 12.16
 -3 3 -6 690.93 11.72
 3 -3 -6 699.88 12.47
 -3 -3 -6 721 12.24
 -3 -3 6 745.76 11.56
 3 3 6 726.97 10.89
 3 3 6 756.45 10.8
 -3 3 -6 703.6 10.71
 -3 3 6 693.33 11.84
 -3 -3 -6 692.37 11.56
 3 -3 -6 730.7 12.21
 -3 -3 -6 795.29 10.84
 -3 3 -6 666.33 10.09
 3 -3 6 740.19 11.03
 3 3 7 178.62 5.59
 -3 3 7 175.47 5.59
 -3 3 -7 172.6 5.49
 3 3 7 191.28 5.71
 -3 -3 7 181.3 5.92
 -3 3 7 166.73 5.97
 3 -3 7 168.51 5.46
 3 3 7 185.24 5.63
 -3 -3 -7 173.98 6.33
 3 -3 -7 167.78 6.44
 3 3 -7 165.86 6.15
 -3 3 -7 169.77 5.95
 3 -3 7 170.86 5.99
 3 3 -7 166.9 5.78
 -3 -3 -7 168.41 5.82
 3 -3 -7 180.89 6.24
 3 3 8 7.16 1.16
 3 -3 8 6.46 1.1
 3 3 8 7.51 1.18
 -3 3 -8 7.15 1.26
 -3 -3 -8 7.91 1.29
 -3 -3 -8 6.85 1.11
 -3 3 -8 7.48 1.18
 3 3 9 146.26 5.31
 3 -4 0 0.09 0.09
 -3 -4 0 0.08 0.12
 -3 -4 0 0.19 0.13
 3 -4 0 0.17 0.17
 3 -4 0 0.02 0.15
 -3 4 0 0.03 0.1
 3 4 0 0.22 0.14
 3 4 0 0.11 0.12
 -3 4 0 0.03 0.1
 -3 4 0 0.07 0.1
 3 4 0 0.06 0.13
 3 4 -1 1915.21 11.61
 3 -4 1 1988.05 13.77
 -3 -4 1 2055.41 11.27
 -3 4 -1 2053.43 13.4
 3 -4 -1 2040.99 14.21
 3 -4 -1 2096.43 15.31
 -3 -4 -1 1956.01 11.02
 -3 4 1 2061.29 11.71
 -3 4 -1 2028.7 13.31
 3 -4 1 1975.55 14
 -3 -4 1 1916.78 9.11
 3 4 1 2017.35 13.57
 3 -4 1 2215.51 16.29
 3 -4 1 1961.3 11.76
 -3 -4 1 1961.81 14.11
 3 4 1 2183.29 15.46
 3 4 -1 1983 14.23
 -3 4 1 2077.23 9.67
 -3 4 1 2042.48 13.98
 -3 -4 -1 2073.54 13.56
 3 -4 -1 2032.18 11.81
 3 -4 2 563.1 8.21
 3 -4 -2 502.45 7.23
 3 4 2 535.5 7.75
 3 4 -2 502.03 7.72
 3 4 2 507.67 7.33
 3 4 -2 513.47 5
 3 4 2 573.92 7.81
 -3 4 2 526.25 4.98
 3 4 -2 519.36 7.76
 -3 4 -2 514.84 7.5
 3 4 -2 502.88 8.1
 3 -4 -2 515.76 7.84
 -3 -4 -2 543.75 7.77
 3 -4 -2 529.22 8.31
 -3 -4 2 496.73 6.24
 -3 4 2 531.9 7.58
 3 -4 2 524.24 7.78
 -3 -4 -2 549.77 7.75
 -3 -4 2 509.61 6.63
 3 -4 2 516.47 7.55
 -3 4 -2 535.85 7.52
 -3 -4 2 521.55 8.44
 3 -4 -3 60.8 2.99
 -3 -4 -3 65.6 2.96
 -3 -4 3 61.18 2.66
 3 4 -3 67.97 2.93
 -3 4 3 64.66 2.69
 3 4 3 68.08 2.92
 -3 -4 3 59.87 2.58
 3 -4 -3 60.22 2.94
 3 4 -3 60.15 1.25
 -3 4 3 65.67 2.83
 3 -4 3 63.2 2.8
 -3 4 -3 58.39 2.86
 3 -4 3 63.99 2.92
 -3 -4 -3 70.16 2.9
 -3 4 -4 737.68 10.28
 3 4 -4 739.46 11.95
 -3 4 -4 733.84 10.93
 -3 -4 -4 728.57 10.8
 3 -4 -4 732 11.3
 3 -4 4 752.02 10.32
 3 -4 -4 747.4 11.65
 3 4 -4 767.26 10.45
 -3 4 4 800.94 10.7
 3 4 4 771.89 10.37
 -3 4 4 684.68 10.52
 -3 -4 4 716.66 10.36
 3 -4 4 754.57 11.14
 3 -4 -4 709.35 10.95
 -3 -4 -4 860.51 11.82
 3 4 4 702.79 10.06
 3 -4 4 717.28 10.08
 3 4 -4 789.49 10.87
 -3 4 4 779.63 9.69
 -3 -4 -4 834.1 10.6
 3 -4 -4 687.6 6.09
 3 4 4 748.88 10.09
 -3 4 -4 729.3 9.86
 3 -4 5 26.38 2.02
 3 4 5 26.44 2.04
 3 -4 -5 25.42 2.32
 -3 4 5 27.21 2.42
 -3 -4 5 27.8 2.33
 3 -4 5 28.26 2.27
 -3 4 5 26.76 2.11
 3 4 5 26.87 2.03
 3 4 5 30.24 2.08
 3 4 -5 27.71 2.17
 -3 -4 -5 27.9 2.31
 3 -4 -5 26.87 2.32
 3 -4 -5 25.52 2.24
 -3 4 -5 27.66 2.3
 3 4 -5 28.06 2.49
 3 -4 -5 28.04 1.78
 -3 4 -5 26.34 2.06
 3 -4 5 26.12 2.02
 -3 -4 -5 25.04 1.85
 -3 4 -5 28.21 2.05
 3 4 -5 25.97 2.06
 3 4 6 91.25 3.8
 3 -4 -6 83.54 4.32
 3 4 6 93.98 4.02
 -3 4 6 90.05 3.97
 -3 -4 6 89.55 4.21
 3 -4 6 88.16 3.86
 3 4 6 91.31 3.94
 -3 -4 -6 94.69 4.32
 -3 4 -6 90.73 3.86
 3 4 -6 98.13 4.27
 3 -4 6 95.9 4.04
 -3 4 -6 90.85 4.37
 3 4 7 156.73 5.13
 -3 4 7 156.6 5.46
 -3 4 -7 148.26 5.13
 -3 -4 7 157.43 6
 3 4 7 174.69 5.59
 -3 4 -7 166.34 5.57
 3 4 7 178.8 5.45
 -3 4 -7 158.69 5.92
 3 -4 -7 161.74 6.24
 -3 -4 -7 168.13 5.82
 -3 4 8 8.57 1.32
 3 -4 8 8.22 1.23
 3 4 8 8.34 1.24
 -3 -4 8 8.63 1.43
 3 -4 8 8.72 1.37
 3 -4 -8 10.63 1.54
 -3 -4 -8 9.28 1.39
 -3 -4 -8 10.18 1.56
 3 -4 -8 9.98 1.62
 3 4 8 8.79 1.27
 3 4 -8 7.85 1.4
 -3 4 -8 8.88 1.44
 3 -5 0 0.29 0.23
 -3 -5 0 0.24 0.14
 -3 -5 0 0.06 0.12
 3 -5 0 0.12 0.13
 -3 -5 0 0.16 0.16
 3 -5 0 0.16 0.17
 -3 5 0 0.02 0.11
 3 5 0 0.09 0.13
 3 5 0 0.02 0.11
 -3 5 0 0.78 0.26
 3 5 0 0.81 0.26
 -3 5 -1 1912.18 13.87
 3 5 -1 2047.47 16.58
 -3 5 -1 2014.73 14.73
 -3 5 1 1961.92 12.89
 -3 -5 -1 2019.61 15.5
 -3 -5 -1 1912.09 11.86
 3 -5 -1 1868.46 15.38
 3 5 1 2154.86 15.99
 3 -5 1 1854.62 14.63
 -3 -5 1 1958.86 10.22
 -3 5 -1 1950.31 13.79
 -3 5 1 1980.35 11.4
 3 5 -1 1924.4 15.09
 -3 -5 1 1966.33 15.01
 -3 -5 -1 2013.27 14.38
 3 -5 -1 1752.21 12
 -3 5 1 1859.13 14.25
 3 5 -1 1916.13 10.01
 3 5 -1 2017.07 12.73
 3 -5 1 1943.86 14.99
 -3 -5 1 1942.81 12.36
 3 5 1 1923.9 14.29
 3 -5 1 1954.65 12.59
 3 5 -2 1381.57 9.77
 -3 5 2 1489.2 9.66
 3 5 2 1470.26 13.07
 -3 5 -2 1441.46 13.02
 3 5 -2 1444.7 14.01
 -3 -5 2 1467.44 11.97
 3 -5 2 1386.11 13.11
 3 5 -2 1457.58 14.57
 -3 5 -2 1354 13.69
 3 -5 -2 1412.51 13.63
 -3 -5 -2 1418.55 13.3
 3 -5 -2 1545.58 15.15
 -3 -5 2 1362.86 10.73
 3 -5 2 1298.91 13.09
 3 5 2 1352.97 12.8
 -3 5 -2 1379.44 12.58
 3 5 -2 1387.15 13.86
 3 -5 -2 1387.42 12.54
 -3 5 -2 1473.82 12.52
 -3 5 2 1479.78 11.23
 -3 5 2 1526.4 13.46
 3 -5 2 1438.99 14.5
 -3 -5 2 1383.39 14
 3 -5 2 1422.6 12.72
 3 5 2 1417.25 12.82
 -3 -5 -2 1418.79 13.1
 -3 5 -3 449.55 8.04
 3 5 -3 449.02 8.79
 -3 5 3 441.9 7.58
 3 5 -3 460.46 5.3
 -3 -5 3 443.29 7.28
 3 -5 -3 460.69 8.91
 3 5 3 493.79 7.66
 3 5 -3 460 8.4
 -3 5 -3 449.06 7.62
 3 -5 3 458.26 8.37
 -3 -5 3 435.19 7.3
 -3 -5 -3 442.07 8.04
 3 -5 -3 437.14 8.04
 3 5 3 466.24 7.95
 -3 -5 3 470.33 9.08
 3 -5 3 446.02 8.15
 3 -5 3 440.91 7.69
 3 5 3 473.48 7.74
 -3 5 -3 455.77 7.89
 -3 5 3 477.34 8.01
 -3 5 -4 696.65 10.85
 3 5 -4 692.63 11.81
 3 -5 -4 677.26 10.94
 -3 -5 4 690.36 10.08
 3 -5 -4 724.73 11.63
 -3 5 -4 703.06 10.24
 -3 -5 -4 690.48 9.94
 3 -5 -4 591.71 6.29
 3 5 4 682.22 10.32
 -3 5 4 693.18 10.67
 3 -5 4 707.02 11.03
 -3 -5 -4 749.78 11.11
 3 -5 -4 689.52 10.87
 3 5 4 678.03 9.86
 3 -5 4 677.08 10.39
 3 5 -4 699.56 10.75
 -3 5 -4 680.49 10.2
 3 -5 4 694.52 10.32
 3 5 -4 624.12 5.8
 -3 5 4 691.8 9.67
 3 5 4 666.19 9.59
 3 -5 -5 9.69 1.44
 3 5 5 8.51 1.18
 -3 5 5 7.95 1.29
 -3 5 -5 8.63 1.21
 -3 -5 5 7.28 1.16
 3 -5 5 8.36 1.27
 -3 5 5 9.65 1.27
 3 5 5 9.27 1.22
 3 -5 5 8.01 1.18
 -3 -5 -5 8.82 1.31
 3 -5 -5 6.82 1.18
 -3 -5 -5 8.98 1.28
 3 -5 5 9.21 1.24
 -3 -5 5 7.98 1.16
 3 5 5 9.92 1.21
 -3 5 5 9.26 1.19
 3 5 -5 7.43 1.15
 -3 5 -5 7.04 1.09
 -3 5 -5 7.87 1.24
 3 5 -5 7.6 1.33
 -3 -5 -5 9.22 1.17
 -3 5 6 419.59 9.63
 -3 5 -6 447.82 8.9
 3 5 -6 452.41 9.37
 -3 -5 6 413.3 9.18
 3 -5 6 405.17 8.99
 -3 5 6 424.26 8.62
 3 5 6 439.02 8.5
 -3 -5 -6 415.71 7.93
 -3 -5 -6 435.31 9.36
 3 -5 -6 417.19 9.68
 -3 5 -6 400.57 8.21
 -3 5 6 422.32 8.28
 3 5 6 446.88 8.46
 3 -5 -6 417.3 9.44
 3 -5 6 396.7 8.19
 3 5 6 407.17 8.44
 -3 -5 6 449.77 8.98
 3 -5 6 431.37 8.81
 3 5 -6 429.98 10.05
 -3 5 -6 420.18 9.57
 3 5 7 306.28 7.36
 -3 5 7 294.48 7.44
 -3 5 -7 277.81 6.98
 3 -5 7 276.86 7.62
 -3 -5 7 287.18 8.01
 -3 -5 7 306.1 7.67
 3 -5 7 285.06 7.14
 3 5 7 299.37 7.4
 3 5 -7 318.64 8.16
 3 5 -7 276.84 8.13
 -3 5 -7 296.88 8.21
 3 -5 -7 275.68 7.85
 -3 5 7 258.14 7.3
 3 -5 -7 284.34 8.45
 -3 -5 -7 285.42 8.09
 3 5 7 309.73 7.2
 3 5 8 8.39 1.23
 3 -5 8 7.41 1.28
 -3 -5 8 9.09 1.45
 -3 -5 -8 8.39 1.32
 3 -5 -8 8.34 1.35
 3 5 -8 7.48 1.36
 -3 5 -8 6.99 1.32
 -3 5 -8 6.92 1.14
 3 5 8 7.63 1.2
 3 -5 8 7.15 1.17
 -3 -5 8 9.11 1.35
 -3 5 8 8.13 1.33
 -3 -5 -8 6.91 1.32
 3 -6 0 0.08 0.18
 -3 -6 0 0.2 0.14
 -3 -6 0 0.25 0.2
 3 6 0 0.05 0.09
 3 -6 0 0.1 0.18
 3 6 0 0.04 0.12
 -3 6 0 0.37 0.24
 -3 6 0 0.18 0.18
 3 -6 -1 1466.43 14.43
 -3 -6 -1 1590.43 11.97
 -3 6 -1 1584.34 13.52
 3 6 -1 1638.92 15.64
 3 -6 1 1445.1 13.64
 -3 -6 1 1558.93 10.18
 -3 6 1 1560.82 12.97
 -3 6 -1 1520.9 13.87
 3 6 1 1568.79 13.35
 -3 -6 1 1540.41 12.09
 3 -6 1 1506.3 14.17
 -3 -6 -1 1581.66 13.77
 3 -6 -1 1451.87 12.22
 -3 -6 1 1507.69 13.98
 3 -6 1 1564.14 12.42
 -3 6 1 1600.38 13.97
 3 6 -1 1434.4 10.11
 -3 -6 -1 1585.65 15.15
 3 -6 -1 1545.27 14.5
 3 6 -1 1521.03 14.48
 -3 6 -1 1571.05 13.33
 3 6 -1 1601.77 12.61
 3 6 1 1526.97 13.63
 -3 6 1 1533.17 11.3
 3 6 1 1669.21 15.14
 3 -6 2 792.85 10.38
 -3 -6 2 824.81 9.49
 -3 6 2 847.19 9.65
 -3 6 -2 857.73 10.09
 3 6 -2 797.47 8.43
 3 -6 -2 843.96 10.28
 3 6 2 805.67 10.14
 -3 6 -2 781.01 10.37
 3 6 -2 817.19 11.47
 3 -6 -2 811.16 11.42
 -3 -6 -2 800.59 9.62
 3 -6 2 795.91 10.62
 -3 6 2 801.85 10.27
 3 6 -2 764.93 6.26
 3 -6 2 794.02 9.83
 -3 -6 2 771.4 10.65
 3 6 2 783.44 10.24
 -3 6 -2 826.14 10.32
 3 6 -2 772.5 10.82
 -3 6 2 767.09 8.19
 -3 -6 -2 822.15 10.44
 -3 6 -3 270.47 6.35
 3 6 -3 264 6.61
 3 -6 3 275.23 6.42
 -3 -6 3 270.79 5.9
 3 6 -3 238.32 6.84
 3 -6 -3 274.77 6.78
 -3 -6 -3 252.65 6.31
 -3 -6 -3 294.04 6.51
 3 -6 -3 261.17 6.84
 3 -6 3 264.88 6.53
 -3 -6 3 252.83 5.58
 3 6 3 260.07 6.08
 3 -6 -3 274.12 6.47
 -3 -6 -3 279.03 6.49
 3 6 -3 274.48 6.86
 -3 6 -3 225.44 5.97
 3 6 -3 248.23 3.28
 -3 6 3 265.85 6.2
 3 -6 3 263.79 6.78
 3 6 3 258.73 6.07
 3 6 3 288.62 5.88
 -3 6 3 264.28 6.17
 3 6 -3 284.58 4.85
 3 6 3 265.44 5.91
 -3 6 3 319.99 5.56
 -3 -6 3 250.3 6.86
 3 -6 -4 708.56 11.62
 -3 -6 -4 683.43 10.87
 -3 -6 4 716.24 10.17
 3 6 4 715.3 10.74
 -3 -6 4 658.58 10.23
 3 6 -4 702.66 11.53
 3 -6 -4 733.55 11.76
 3 6 -4 727.92 11.48
 3 -6 4 772.25 11.43
 -3 6 -4 716.02 11.28
 -3 6 4 721.13 10.36
 3 6 -4 810.83 7.67
 -3 6 4 768.38 11.2
 -3 -6 -4 742.38 10.46
 3 -6 5 134.72 4.86
 -3 6 -5 137.08 5.34
 3 6 -5 147.63 5.76
 -3 -6 -5 147.9 5.36
 3 -6 -5 133.48 5.13
 -3 -6 5 136.99 4.82
 3 -6 -5 148.27 5.71
 3 6 5 149.73 5.18
 -3 6 5 138.23 5.15
 -3 6 -5 134.2 4.74
 3 6 -5 141.36 5.27
 3 -6 5 151.36 5.43
 -3 -6 5 136.79 5.15
 3 -6 -5 135.23 5.24
 -3 -6 -5 148.62 5.45
 3 6 5 137.54 4.67
 3 -6 5 146.38 5.05
 -3 6 5 154.03 4.92
 -3 6 -5 137.33 4.85
 3 6 -5 147.79 5.34
 -3 -6 -5 145.62 4.78
 3 6 5 144.61 4.68
 -3 6 5 136.27 4.83
 3 -6 -6 234.73 7.19
 -3 6 6 218.87 7.09
 3 -6 6 207.22 6.09
 3 -6 6 203.64 6.41
 -3 -6 6 218.05 6.63
 -3 6 -6 209.81 6.08
 3 -6 -6 216.27 6.85
 -3 -6 -6 231.55 6.76
 -3 6 6 224.16 6.44
 3 6 6 228.42 6.19
 -3 -6 -6 232.48 6.94
 -3 6 -6 222.72 6.31
 -3 -6 -6 223.78 5.84
 -3 6 6 217.54 6.02
 3 6 6 234.3 6.09
 3 6 -6 220.59 7.3
 3 6 6 220.15 6.34
 -3 -6 6 217.94 6.29
 3 6 7 153.6 5.15
 -3 6 7 139.33 5.15
 -3 6 -7 139.18 5.07
 3 -6 7 134.67 5.28
 -3 -6 7 142.06 5.65
 3 6 7 140.81 5.14
 -3 -6 7 147.81 5.32
 3 -6 7 147.57 5.19
 3 6 -7 155.76 5.85
 -3 6 -7 143.95 5.16
 -3 6 -7 147.04 5.86
 3 6 -7 147.11 6.02
 3 -6 -7 143.14 5.59
 -3 -6 -7 147.46 5.58
 -3 6 7 130.54 5.42
 -3 -6 -7 150.39 5.68
 3 6 7 168.11 5.43
 3 6 8 10 1.28
 3 -6 8 8.4 1.38
 3 -6 -8 7.59 1.28
 -3 -6 -8 9.72 1.43
 -3 6 -8 7.77 1.42
 3 6 -8 7.99 1.42
 -3 6 -8 8.21 1.25
 -3 6 8 9.53 1.41
 -3 -6 8 9.3 1.37
 3 -6 8 9.12 1.32
 -3 -6 -8 8.97 1.46
 3 -6 -8 8.76 1.49
 3 -7 0 0.08 0.2
 -3 -7 0 0.18 0.17
 3 -7 0 0.24 0.18
 -3 -7 0 0.08 0.17
 3 7 0 0.08 0.18
 -3 7 0 0.64 0.3
 3 7 0 0.15 0.15
 -3 -7 0 0.13 0.18
 3 -7 0 -0.03 0.15
 -3 7 0 0.03 0.15
 3 -7 -1 1664.13 16.44
 3 7 1 1851.84 16.69
 3 7 -1 1606.35 15.84
 -3 7 1 1646.67 13.01
 -3 -7 1 1593.97 11.72
 3 -7 1 1600.46 15.12
 -3 7 -1 1601.48 15.09
 -3 7 1 1709.87 14.92
 3 7 -1 1715.95 16.85
 -3 7 -1 1639.82 14.85
 3 -7 1 1670.88 13.96
 -3 -7 -1 1727.49 15.35
 3 -7 -1 1586.16 13.41
 -3 -7 1 1519.43 15.06
 3 7 1 1646 14.46
 3 -7 -1 1728.53 16.55
 -3 -7 -1 1553.87 16.19
 3 7 -1 1610.28 13.77
 3 7 1 1604.37 15.12
 -3 -7 1 1683.33 13.72
 3 -7 1 1666.23 15.7
 -3 7 1 1672.83 15
 3 7 -1 1660.14 11.97
 -3 -7 2 30.96 1.93
 3 -7 2 31.3 2.17
 -3 7 2 34.22 2.06
 3 -7 -2 34.7 2.39
 -3 -7 -2 31.46 2.22
 -3 -7 -2 32.87 2.07
 3 -7 -2 33.47 2.42
 3 7 2 37.85 2.3
 3 -7 2 30.98 2.18
 -3 -7 2 32.39 1.78
 3 7 -2 30.34 2.26
 3 7 2 31.87 2.14
 -3 -7 -2 31.12 2.15
 3 7 -2 30.99 1.49
 -3 7 2 35.98 2.26
 3 -7 -2 29.72 2.05
 3 7 -2 31.17 2.37
 -3 7 -2 32.44 2.23
 3 7 2 32.78 2.19
 3 7 -2 32.07 1.88
 3 -7 2 32.93 2.11
 -3 -7 2 29.23 2.2
 -3 7 -3 1.56 0.52
 3 7 -3 1.46 0.51
 -3 7 3 1.43 0.49
 3 7 3 1.48 0.49
 -3 7 -3 1.67 0.58
 3 7 3 1.56 0.49
 3 7 -3 1.45 0.58
 -3 -7 -3 1.82 0.57
 3 -7 3 8.66 1.22
 -3 -7 -3 1.73 0.55
 3 -7 -3 1.52 0.55
 -3 -7 3 1.36 0.45
 -3 7 3 1.44 0.5
 3 7 -3 1.2 0.27
 -3 -7 3 1.72 0.51
 3 -7 3 2.1 0.62
 3 -7 -3 1.86 0.58
 -3 -7 -3 1.51 0.52
 -3 -7 3 7.66 1.23
 3 -7 3 1.55 0.52
 3 7 3 1.77 0.51
 -3 7 -3 1.58 0.53
 3 7 -3 1.23 0.51
 -3 7 -4 879.24 12.28
 3 -7 4 935.55 12.61
 -3 -7 4 895.59 11.78
 -3 7 -4 904.14 13.18
 3 7 -4 891.42 13.93
 3 -7 -4 883.37 13.41
 -3 -7 -4 862.78 12.34
 -3 -7 -4 920.85 12.55
 3 -7 -4 910.16 13.77
 3 -7 4 925.91 13.1
 3 7 -4 946.43 13.88
 -3 7 -4 886.09 12.29
 3 7 4 942.97 12.02
 -3 -7 4 946.29 12.14
 3 -7 -4 969.76 13.65
 -3 -7 -4 944.47 13.06
 -3 7 4 929.31 12.03
 3 7 4 908.51 12.36
 3 -7 4 897.95 13.16
 3 7 4 830.68 11.43
 3 7 4 1021.68 12.53
 -3 7 4 924.04 12.67
 -3 -7 4 900.89 13.97
 -3 7 -5 7.18 1.24
 -3 -7 -5 7.36 1.22
 3 -7 -5 7.85 1.28
 -3 -7 5 7.42 1.13
 3 7 5 7.68 1.24
 3 -7 5 7.8 1.27
 -3 7 -5 7.36 1.17
 3 7 -5 7.04 1.28
 3 -7 -5 7.87 1.3
 3 -7 5 8.96 1.3
 -3 7 5 7.51 1.13
 3 7 -5 7.33 1.24
 -3 7 5 7.4 1.17
 -3 -7 -5 7.91 1.14
 3 7 5 7.16 1.07
 3 -7 -6 247.92 7.36
 -3 -7 -6 229.63 6.76
 -3 -7 6 221.4 6.26
 3 -7 -6 252.75 7.66
 3 -7 6 244.31 7.13
 -3 -7 -6 239.56 7.11
 3 -7 -6 213.06 7.2
 3 7 6 246.15 6.43
 -3 7 6 233.12 6.59
 -3 7 -6 226.53 6.48
 -3 -7 6 224.72 6.81
 3 -7 6 246.83 6.72
 -3 -7 6 205.39 7.17
 3 7 6 242.56 6.31
 -3 7 6 233.52 6.33
 3 7 -6 245.8 7.2
 -3 7 -6 233.52 6.67
 3 7 6 214.9 6.36
 -3 7 6 201.39 6.72
 3 7 -6 237.76 7.74
 -3 7 -6 218.73 7.02
 -3 -7 -6 237.53 6.3
 3 -7 7 58.86 3.55
 -3 -7 7 55.67 3.55
 -3 7 -7 51.47 3.2
 3 7 7 58.29 3.17
 -3 7 7 53.77 3.19
 3 -7 -7 59.42 3.69
 -3 -7 -7 55.94 3.44
 3 7 7 59.05 3.17
 -3 7 -7 59.74 3.81
 3 7 -7 55.55 3.76
 3 -7 7 56.36 3.28
 -3 -7 -7 57.09 3.44
 3 -7 -7 49.8 3.59
 -3 7 7 48.63 3.26
 3 7 -7 59.85 3.65
 -3 7 -7 55.09 3.27
 -3 -7 7 51.67 3.09
 3 7 7 57.67 3.3
 -3 7 8 3.53 0.84
 3 -7 -8 3.28 0.93
 -3 7 -8 3.84 0.96
 -3 -7 -8 4.05 0.94
 3 -8 0 0.22 0.25
 -3 -8 0 0.04 0.17
 -3 8 0 -0.03 0.14
 3 8 0 0.24 0.2
 -3 -8 0 0.06 0.19
 3 -8 0 0.14 0.18
 -3 8 0 0.29 0.27
 3 8 0 0.05 0.15
 -3 -8 0 0.05 0.17
 3 -8 0 0.03 0.22
 -3 8 0 0.02 0.12
 3 8 0 0.29 0.26
 3 -8 1 1195.79 13.79
 -3 -8 1 1230.84 11.28
 3 8 1 1239.57 13.73
 3 8 -1 1247.93 13.05
 -3 8 -1 1203.11 13.85
 3 -8 -1 1229.9 14.57
 -3 -8 -1 1187.09 14.88
 -3 -8 1 1165.5 12.49
 3 -8 1 1171.73 14.14
 3 8 -1 1194.84 14.32
 3 8 1 1258.97 14.93
 -3 8 1 1231.64 12.26
 3 8 -1 1228.34 11.3
 -3 8 1 1233.81 13.41
 -3 8 -1 1242.25 13.29
 -3 -8 -1 1233.33 13.69
 -3 -8 1 1190.01 14.07
 3 -8 1 1274.06 13.11
 3 -8 -1 1147.05 12.2
 3 -8 -1 1189.54 14.43
 -3 -8 -1 1290.22 12.74
 -3 8 -1 1206.38 13.15
 3 8 -1 1226.71 15.08
 -3 8 2 471.61 8.37
 -3 8 -2 450.78 8.03
 -3 -8 -2 444.63 8.92
 3 -8 -2 466.74 9.17
 3 -8 -2 501.06 9.65
 -3 -8 -2 487.36 8.51
 3 8 -2 495.12 8.01
 3 -8 2 443.5 8.56
 -3 -8 2 464.11 7.26
 -3 8 -2 461.64 8.84
 3 8 -2 463.96 9.78
 3 8 2 498.92 8.85
 3 8 2 486.76 8.76
 3 8 2 486.93 8.68
 -3 8 2 497.74 7.84
 3 8 -2 436.9 6.28
 -3 8 2 430.73 8.17
 3 -8 2 455.02 8.86
 -3 -8 2 472.59 7.99
 -3 8 -2 457.12 8.55
 3 8 -2 461.84 9.07
 3 -8 2 439.75 8.18
 -3 -8 2 422.02 8.71
 -3 -8 -2 453.07 8.53
 -3 8 -3 235.51 6.04
 3 8 3 252.63 6.39
 -3 -8 -3 256.11 6.83
 -3 -8 -3 280.97 6.96
 3 -8 -3 254.25 7.23
 -3 -8 3 243.77 5.75
 3 8 -3 239.08 7.18
 -3 8 -3 241.85 6.55
 -3 8 3 274.36 5.69
 3 8 3 264.85 6.41
 3 -8 -3 266.84 6.93
 -3 -8 -3 257.47 6.7
 -3 8 3 246.22 6.38
 -3 -8 3 244.28 6.9
 3 -8 3 239.18 6.43
 -3 -8 3 261.75 6.28
 3 -8 3 258.95 6.8
 3 8 -3 273.72 5.89
 -3 8 -3 262.81 6.72
 3 8 -3 257.87 7.08
 3 -8 4 765.46 11.77
 -3 -8 4 733.6 10.93
 3 8 -4 730.93 13.35
 -3 8 -4 704.27 12.17
 -3 -8 -4 739.26 11.69
 -3 8 -4 796.51 11.33
 3 -8 -4 816.72 13.32
 3 8 4 783 10.96
 -3 8 -4 739.4 11.61
 3 8 -4 781.61 12.65
 -3 -8 4 752.74 11
 3 -8 4 796.92 12.37
 3 8 -4 739 12.99
 -3 8 -4 741.89 11.66
 3 8 4 738.03 11.24
 -3 -8 -4 785.37 11.98
 -3 8 4 778.46 11.59
 3 8 4 751.77 11.16
 3 8 4 785.95 10.97
 -3 -8 -4 814.95 11.92
 -3 8 4 739.1 11.12
 -3 -8 4 808.75 13.3
 3 -8 4 734.73 12.07
 -3 8 -5 235.67 7.39
 3 8 -5 262.05 7.91
 -3 -8 -5 271.69 7.24
 -3 8 -5 259 6.66
 3 -8 -5 283.91 8.01
 -3 8 5 256.19 6.96
 3 8 5 278.45 7.42
 3 -8 5 261.93 7.53
 -3 -8 5 263.77 8.16
 3 -8 5 275.9 7.42
 -3 -8 5 270.04 7.15
 -3 8 -5 243.47 6.88
 3 8 -5 268.92 7.88
 3 8 5 297.28 7.21
 -3 -8 -5 273.97 7.31
 3 -8 -5 298.37 8.17
 3 8 5 273.72 6.62
 -3 8 5 276.87 6.95
 3 8 -5 265 7.48
 -3 8 -5 266.74 7.05
 -3 8 5 286.87 7.29
 3 -8 5 273.11 7.17
 -3 -8 -5 270.09 6.82
 -3 -8 6 294.33 7.37
 3 -8 -6 306.71 8.57
 3 8 6 284.06 7.44
 -3 8 6 275.98 7.61
 3 8 6 270.67 6.77
 -3 8 6 295.01 7.27
 3 8 6 287.33 6.87
 -3 8 -6 270.48 7.26
 -3 -8 6 261.09 8.03
 3 8 -6 288.8 7.92
 -3 8 -6 291.43 7.44
 3 8 -6 278.49 8.25
 -3 8 -6 257.77 7.61
 3 -8 6 283.23 7.36
 3 -8 -6 280.82 7.81
 3 -8 -6 285.95 8.11
 -3 -8 -6 287.59 7.83
 -3 8 7 61.08 3.76
 3 -8 7 66.17 3.78
 -3 8 -7 62.07 3.56
 3 8 7 64.27 3.34
 -3 8 7 61.87 3.38
 3 8 7 67.21 3.33
 3 8 -7 71.69 4.05
 -3 8 -7 62.99 3.5
 -3 -8 7 49.36 3.73
 -3 -8 -7 62.49 3.59
 3 -8 -7 66.53 4.16
 -3 8 -7 60.19 3.81
 3 8 -7 60.9 3.92
 3 -8 7 64.73 3.49
 3 -8 -7 59.59 3.7
 -3 9 0 0.25 0.22
 3 9 0 0.03 0.12
 3 9 0 0.37 0.24
 -3 9 0 0.03 0.13
 3 -9 0 0.03 0.19
 3 -9 0 0.25 0.28
 3 -9 0 0.1 0.19
 3 9 0 0.09 0.19
 3 -9 0 0.19 0.21
 -3 -9 0 -0.03 0.19
 3 -9 -1 676.57 9.94
 3 -9 1 657.42 10.03
 -3 -9 1 722.37 10.33
 3 9 -1 737.58 10.66
 -3 9 -1 723.07 11.31
 -3 9 1 661.94 10.65
 3 -9 -1 704.5 11.5
 -3 9 -1 717.68 10.54
 3 9 1 744.92 10.6
 -3 9 1 687.31 10.41
 3 9 -1 734.65 9.49
 -3 -9 1 693.61 9.33
 -3 9 1 704.07 9.71
 3 9 1 770.23 11.55
 -3 9 -1 700.36 10.61
 3 -9 -1 687.88 11.38
 -3 -9 -1 730.79 10.38
 -3 -9 2 211.81 5.2
 3 9 2 204.83 5.77
 -3 9 -2 219.29 6.33
 3 9 -2 223.49 6.93
 3 -9 2 212.64 6.36
 -3 -9 2 214.25 5.72
 3 -9 2 210.79 5.91
 -3 -9 -2 222.73 6.21
 3 -9 -2 219.09 6.08
 -3 -9 2 222.58 6.4
 -3 -9 -2 230.48 6.21
 3 -9 -2 182.04 6.07
 -3 9 2 205.88 5.85
 -3 9 -2 211.35 5.7
 3 9 -2 203.98 4.66
 3 9 2 216.46 5.96
 -3 9 2 237.44 5.7
 -3 9 -2 210.78 6.07
 3 9 -2 206.13 6.29
 3 -9 -2 223.93 6.75
 -3 -9 -2 208.88 6.31
 -3 9 2 205.31 5.89
 3 9 2 201.73 5.85
 3 9 -3 38.12 2.79
 3 -9 -3 41.32 2.82
 3 9 3 41.36 2.66
 3 -9 3 38.6 2.7
 3 -9 -3 39.53 2.89
 -3 -9 -3 40.74 2.79
 3 -9 3 41.17 2.77
 -3 -9 3 38.85 2.39
 -3 -9 -3 37.55 2.69
 3 9 3 37.31 2.51
 3 9 3 35.98 2.39
 -3 -9 -3 38.97 2.67
 3 -9 3 39.6 2.65
 -3 -9 3 36.36 2.72
 -3 9 -3 37.35 2.67
 3 9 -3 39.18 2.95
 3 -9 -3 38.12 2.8
 -3 9 -3 39.38 2.5
 -3 9 3 36.18 2.51
 -3 9 3 37.09 2.54
 3 9 -3 40.15 2.43
 3 -9 4 592.17 10.8
 -3 -9 4 584.57 9.95
 3 9 4 575.46 9.75
 -3 9 -4 579.7 10.51
 3 9 -4 545.72 11.7
 3 9 4 565.23 9.59
 -3 9 4 529.87 9.64
 3 -9 -4 611.6 11.53
 3 -9 -4 617.32 11.42
 -3 -9 -4 603.04 10.79
 -3 9 4 579.59 10.24
 -3 -9 4 553.84 10.99
 3 -9 4 562.33 10.52
 3 -9 4 574.58 10.4
 -3 -9 4 576.71 10
 3 -9 5 0.11 0.22
 -3 -9 5 0.07 0.28
 3 9 5 0.26 0.25
 3 -9 -5 0.48 0.4
 3 -9 5 0.63 0.4
 -3 9 5 0.03 0.19
 3 9 5 0.32 0.28
 -3 9 -5 0.07 0.2
 3 9 -5 0.5 0.36
 3 9 -5 0.19 0.26
 -3 9 -5 0.17 0.31
 3 -9 -5 0.04 0.23
 -3 -9 -5 0.03 0.16
 3 9 5 0.14 0.2
 -3 9 5 0.5 0.36
 -3 -9 5 0.04 0.3
 3 -9 5 0.08 0.23
 -3 -9 -5 0.15 0.26
 3 -9 -6 160.25 6.18
 3 -9 6 140.47 5.42
 3 9 6 138.36 4.78
 -3 9 6 148.21 5.26
 -3 9 6 143.95 5.19
 3 9 6 144.2 5.02
 -3 -9 -6 143.35 5.44
 3 -9 -6 140.49 5.56
 3 9 -6 155.43 5.9
 -3 9 -6 139.84 5.3
 -3 -9 6 128.87 4.94
 3 -9 6 146.6 5.41
 3 -9 -6 145.52 5.77
 -3 -9 -6 161.12 5.91
 3 9 -6 145.58 6.18
 -3 9 6 141.92 5.37
 -3 9 -6 145 5.38
 -3 -9 6 136.44 5.87
 3 -9 7 101.26 4.59
 -3 9 -7 96.38 4.44
 -3 9 7 95.72 4.21
 3 9 7 95.41 4.1
 -3 -9 7 105.35 4.55
 3 -9 7 95.27 4.37
 -3 -9 -7 98.05 4.49
 3 -9 7 86.22 4.7
 -3 -9 7 87.58 4.76
 -3 9 7 95.94 4.65
 3 9 -7 102.48 4.83
 -3 9 -7 95.42 4.34
 -3 -9 -7 98.75 4.59
 3 9 -7 86.73 5.02
 3 9 7 100.66 4.07
 3 -10 0 0.18 0.23
 -3 -10 0 0.19 0.2
 -3 10 0 -0.03 0.15
 3 10 0 0.03 0.19
 -3 -10 0 0.1 0.18
 3 -10 0 0.04 0.2
 -3 -10 0 0.03 0.19
 3 -10 0 0.09 0.2
 -3 10 0 0.1 0.18
 3 10 0 0.15 0.19
 3 10 0 0.56 0.35
 -3 -10 1 491.04 9.48
 -3 -10 -1 496.56 9.4
 3 -10 1 480.31 8.9
 3 -10 -1 483.52 8.81
 3 -10 -1 496.72 9.95
 -3 -10 -1 501.75 9.05
 -3 10 1 488.46 8.53
 3 10 1 476.65 9.57
 3 10 -1 498.86 9.76
 3 -10 1 499.17 9.95
 -3 -10 1 506.52 9.2
 -3 -10 1 495.67 8.33
 3 -10 1 518.98 9.92
 3 -10 -1 511.59 10.27
 -3 -10 -1 449.41 9.79
 -3 10 -1 519.5 10.01
 -3 10 1 497.13 9.72
 -3 10 -1 486.66 9.22
 3 10 1 541.25 9.89
 3 10 -1 515.33 9.37
 3 10 1 512.41 9.11
 3 10 -1 500.31 8.35
 -3 10 1 510.65 9.49
 3 -10 2 431.45 8.96
 3 10 2 430.37 8.7
 -3 10 2 444.64 8.3
 -3 10 -2 420.16 9.2
 3 10 -2 462.32 10.47
 -3 10 -2 435.29 8.93
 3 10 -2 425.92 9.19
 -3 -10 -2 440.11 9.05
 3 -10 2 437.23 8.76
 3 -10 -2 440.82 9.13
 -3 -10 2 440.57 9.2
 3 10 2 462.37 9.11
 -3 -10 -2 444.19 9.38
 3 -10 -2 476.49 10.11
 3 -10 2 444.35 9.43
 -3 -10 2 437.04 8.6
 -3 -10 -2 465.49 9.23
 3 -10 -2 442.84 9.57
 -3 10 2 455.95 8.99
 -3 10 2 411.77 8.71
 3 10 2 441.81 9.19
 3 10 -2 435.25 8.4
 3 -10 3 124.93 4.94
 -3 10 -3 121.27 4.86
 3 -10 3 121.6 4.83
 3 10 -3 123.93 5.39
 -3 -10 3 122.1 4.66
 3 10 3 128.63 4.83
 3 -10 -3 132.42 5.22
 3 -10 -3 131.68 5.33
 -3 -10 -3 130.46 5.14
 -3 10 -3 131.31 4.69
 -3 10 3 115.79 4.62
 3 10 3 119.66 4.47
 3 -10 -3 124.75 5.21
 -3 10 -4 293.71 7.13
 3 -10 -4 309.41 8.48
 -3 -10 -4 326.99 8.59
 3 10 4 282.4 6.91
 3 -10 4 293.13 7.67
 3 -10 -4 285.39 8.04
 -3 -10 -4 278.57 7.5
 -3 10 -4 289.7 7.66
 3 10 -4 261.89 8.3
 3 10 4 293.09 7.34
 3 10 4 282.53 7.04
 -3 10 4 269.33 7.08
 -3 10 4 281.32 7.31
 -3 -10 4 287.87 7.21
 3 -10 4 298.27 7.85
 -3 10 -4 279.99 7.48
 3 10 -4 285.01 8.02
 3 -10 -4 283.93 7.91
 -3 -10 -4 293.66 7.66
 -3 -10 4 266.13 7.78
 3 -10 4 272.67 7.37
 3 -10 -5 34.39 2.85
 3 -10 5 34.15 2.68
 -3 -10 -5 32.73 2.56
 -3 10 -5 32.94 2.6
 3 10 -5 30.39 2.84
 -3 10 -5 31.98 2.53
 3 10 -5 33.87 2.79
 3 10 5 35.13 2.53
 -3 10 5 30.67 2.44
 -3 10 5 30.96 2.4
 3 -10 -5 34.16 2.79
 -3 -10 5 27.34 2.28
 3 -10 5 33.05 2.6
 -3 -10 5 31.37 2.82
 3 -10 5 31.68 2.67
 3 10 5 32.39 2.37
 -3 -10 -5 34.08 2.67
 3 -10 -5 34.97 2.88
 -3 10 -6 50.12 3.28
 -3 10 -6 33.59 2.87
 3 10 -6 42.62 3.4
 -3 10 -6 51.64 3.22
 3 10 -6 48.37 3.35
 3 10 6 48.13 2.86
 -3 10 6 46.78 3
 3 -10 -6 52.31 3.58
 -3 -10 -6 51.08 3.34
 -3 -10 6 52.86 3.66
 3 -10 6 46.64 3.37
 3 10 6 49.2 2.94
 3 -10 6 51.23 3.24
 -3 -10 6 49.49 3.08
 3 -10 6 53.53 3.38
 -3 -10 7 116.18 4.74
 3 10 7 118.63 4.41
 3 -10 7 101.04 5.07
 -3 10 -7 106 4.72
 -3 10 -7 96.46 4.91
 3 11 0 0.35 0.35
 3 -11 0 -0.04 0.29
 -3 -11 0 0.04 0.22
 3 -11 0 0.04 0.19
 -3 11 0 0.65 0.37
 3 11 0 -0.04 0.2
 3 -11 0 0.04 0.19
 -3 11 0 0.61 0.36
 3 11 0 0.06 0.18
 3 -11 0 0.24 0.3
 -3 -11 0 0.36 0.33
 -3 11 0 0.92 0.46
 3 11 1 816.2 12.53
 3 11 -1 766.33 11.98
 3 -11 1 745.76 12.75
 -3 11 1 747.8 11.06
 3 11 -1 741.78 12.16
 3 11 1 686.18 12.49
 3 -11 -1 678.44 12.16
 -3 -11 -1 764.18 12.81
 -3 11 1 722.16 12.58
 -3 11 -1 770.99 12.85
 3 -11 1 760.25 12.49
 -3 11 -1 762.85 11.94
 3 -11 -1 727.02 12.45
 -3 11 1 769.69 11.91
 -3 11 -1 776 11.89
 -3 -11 -1 752.93 11.92
 -3 -11 1 773.93 12.27
 3 -11 -2 313.58 8.29
 3 11 -2 335.06 8.38
 -3 11 -2 313.67 7.87
 3 -11 2 335.53 8.17
 -3 11 -2 324.89 8.39
 -3 -11 2 354.41 8.19
 3 -11 2 339.86 8.52
 -3 11 2 306.57 7.84
 3 11 -2 341.05 7.88
 3 11 2 363.17 8.49
 3 11 2 347.66 8.09
 3 11 -2 334.19 8.89
 3 11 2 312.46 7.54
 -3 11 2 330.84 7.95
 -3 11 -2 347.82 7.9
 -3 -11 2 329.84 8.19
 -3 -11 -2 359.24 8.45
 3 -11 2 319.22 7.86
 3 -11 -2 329.83 8.18
 -3 -11 -2 337.97 8.47
 3 -11 -2 333.72 8.69
 3 -11 3 80.72 4.04
 -3 11 -3 73.19 3.84
 3 11 -3 76.52 4.1
 -3 11 -3 76.11 4.03
 3 11 -3 71.88 4.25
 -3 11 3 71.05 3.72
 3 11 3 72.74 3.75
 3 -11 3 67.54 3.8
 -3 -11 -3 72.29 3.86
 -3 -11 3 73.91 4.03
 -3 -11 -3 69.68 3.93
 3 -11 -3 72.52 4.08
 3 -11 3 73.97 4.02
 -3 -11 3 73.11 3.68
 3 -11 -3 82.15 4.37
 3 11 3 74.06 3.73
 -3 11 3 75.15 3.74
 -3 11 -3 77.99 3.75
 3 -11 -3 71.02 3.93
 3 11 4 241.64 6.58
 3 -11 4 247.88 7.19
 -3 11 -4 235.57 6.96
 -3 11 -4 234.98 7.11
 3 11 -4 215.71 7.62
 -3 11 4 210.89 6.39
 3 11 4 232.67 6.7
 3 -11 4 234.73 7.08
 3 -11 -4 254.55 7.76
 -3 -11 4 244.89 6.84
 3 11 4 232.87 6.36
 -3 11 4 236.35 6.9
 3 -11 -4 262.8 7.83
 3 -11 -4 242.86 7.42
 3 -11 -5 33.86 2.86
 3 -11 5 32.13 2.62
 -3 11 -5 34.5 2.72
 3 11 -5 24.31 2.52
 3 11 -5 35.72 2.91
 -3 11 -5 33.06 2.65
 -3 11 5 28.15 2.38
 3 -11 5 33.2 2.69
 -3 -11 5 34.34 2.57
 3 -11 -5 33.94 2.79
 -3 11 5 32.23 2.51
 -3 -11 5 32.82 2.87
 3 11 5 34.34 2.47
 -3 -11 -5 34.79 2.74
 3 -11 -5 33.4 2.86
 3 -11 6 242.76 7.16
 -3 11 -6 218.49 6.77
 3 11 6 209.88 6.19
 -3 11 6 224.79 6.45
 3 -11 -6 248.65 7.76
 3 11 6 203.24 5.88
 -3 -11 6 237.36 6.89
 3 -11 6 222.43 6.74
 -3 11 6 192.4 5.98
 -3 -11 6 221.88 7.43
 3 -11 6 228.45 7.3
 -3 -11 -6 239.2 7.17
 -3 11 -6 225.38 6.8
 3 11 -6 233.64 7.39
 -3 -11 -6 221.16 6.85
 3 -11 -6 227.93 7.25
 -3 12 0 0.29 0.27
 3 12 0 0.29 0.29
 -3 -12 0 0.08 0.26
 3 -12 0 0.13 0.25
 3 12 0 -0.04 0.22
 3 -12 0 0.11 0.24
 -3 -12 0 0.23 0.31
 3 12 -1 465.43 9.81
 3 12 1 451.45 9.94
 -3 -12 -1 470.4 9.83
 3 -12 1 463.75 9.63
 -3 -12 1 440.75 9.45
 3 -12 -1 448.49 9.42
 -3 12 1 417 9.31
 3 12 1 454.17 9.63
 3 12 -1 449.35 9.49
 3 -12 -1 490.66 10.53
 -3 12 -1 462.9 9.6
 -3 12 -1 463.44 9.58
 -3 12 1 432.48 9.15
 3 12 1 500.79 9.67
 3 -12 -1 433.78 9.99
 -3 -12 -1 421.06 10.52
 -3 12 1 480.63 10.44
 -3 12 -1 438.57 10.19
 -3 -12 1 457.24 9.73
 3 -12 1 475.21 10.37
 -3 12 -2 32.73 2.78
 3 -12 2 33.84 2.78
 -3 -12 2 33.4 2.62
 3 12 -2 35.71 2.84
 3 12 2 33.37 2.51
 3 -12 2 34.95 2.69
 3 -12 -2 35.65 2.79
 -3 -12 -2 37.02 2.81
 -3 -12 2 32.61 2.66
 3 -12 -2 34.56 2.85
 -3 12 2 33.11 2.59
 -3 -12 -2 32.43 2.8
 3 -12 -2 37.96 3
 3 -12 2 34.37 2.7
 3 12 -2 34.79 2.92
 -3 12 -2 35.67 2.61
 -3 12 -2 29.65 2.48
 -3 12 -3 9.27 1.47
 3 12 3 9.41 1.39
 3 12 3 7.81 1.19
 3 -12 3 8.96 1.4
 3 -12 3 8.56 1.38
 -3 -12 3 9.95 1.46
 3 -12 -3 9.59 1.52
 3 -12 -3 9.22 1.49
 3 12 3 8.87 1.32
 3 12 -3 8.56 1.4
 -3 12 -3 12.26 1.63
 -3 -12 -4 199.6 6.61
 3 -12 -4 218.17 7.26
 -3 12 4 198.01 6.22
 3 -12 4 207.55 6.68
 -3 -12 4 215.65 7.13
 3 -12 4 208.14 6.83
 3 12 4 214.72 6.53
 3 12 4 194.74 5.88
 -3 12 -4 206.06 6.57
 3 12 -4 212.45 7.1
 -3 12 4 210.05 6.45
 3 12 4 205 6.13
 3 -12 -4 203.18 6.94
 -3 -12 -4 209.82 6.69
 3 -12 4 214.75 6.91
 -3 -12 4 215.34 6.55
 -3 12 -4 209.53 6.77
 3 12 -4 191.64 7.12
 3 -12 5 28.43 2.5
 3 12 5 26.21 2.17
 3 12 5 28.86 2.34
 3 -12 -5 28.1 2.66
 -3 12 5 28.93 2.4
 3 -12 -5 25.6 2.45
 3 12 -5 24.39 2.43
 -3 -12 5 29.06 2.66
 -3 12 -5 25.31 2.36
 3 12 -5 23.97 2.52
 -3 -12 5 24.15 2.19
 3 -12 5 26.75 2.42
 -3 -12 -5 26.02 2.39
 -3 -12 6 62.1 3.54
 3 -12 6 61.07 3.64
 -3 12 6 56.12 3.23
 3 -13 0 0.13 0.26
 -3 13 0 0.11 0.21
 3 13 0 0.12 0.23
 3 -13 0 0.62 0.43
 -3 13 0 0.17 0.26
 3 -13 0 1.07 0.48
 -3 -13 0 0.04 0.24
 3 13 0 0.12 0.21
 -3 13 0 0.04 0.17
 -3 13 1 392 9.23
 3 13 -1 393.3 9.26
 3 13 1 459.58 9.72
 -3 13 1 385.71 10
 3 -13 1 451.93 10.13
 3 13 1 425.19 9.65
 -3 13 1 404.02 9.02
 -3 13 -1 418.64 9.11
 3 -13 -1 404.02 9.74
 -3 -13 -1 442.45 10.4
 3 -13 -1 407.26 9.65
 3 -13 -1 464.17 10.45
 -3 13 -1 433.78 10.08
 -3 13 -1 424.81 9.35
 -3 13 -2 112.45 5.11
 -3 13 -2 104.68 4.76
 -3 13 2 107.92 4.74
 3 13 2 119.74 5.05
 -3 13 2 110.92 4.71
 -3 13 -2 107.33 4.64
 3 13 2 110.02 4.74
 3 -13 2 112.57 5.03
 3 13 -2 110.69 5.01
 3 13 2 106.6 4.56
 -3 -13 -2 112.47 5.11
 3 -13 -2 119.44 5.4
 3 -13 2 110.1 4.84
 -3 -13 2 107.44 4.86
 -3 -13 -2 106.59 4.9
 3 -13 2 112.18 5.14
 -3 -13 2 114.4 5
 3 -13 -3 12.61 1.8
 -3 13 3 11.18 1.49
 3 -13 3 14.02 1.77
 -3 13 -3 10.97 1.59
 3 -13 -3 10.75 1.65
 -3 -13 -3 13.75 1.83
 -3 13 3 11.46 1.53
 3 13 -3 10.65 1.76
 -3 -13 3 13.6 1.76
 3 -13 3 12.54 1.74
 3 13 3 12.01 1.57
 3 13 3 13.94 1.68
 3 13 -3 12.11 1.71
 -3 13 -3 12.63 1.69
 -3 -13 3 10.44 1.54
 -3 -13 -4 226.64 7.09
 3 -13 -4 245.47 7.78
 -3 13 4 229.76 6.8
 3 -13 4 228.98 7.06
 3 13 4 212.12 6.57
 -3 13 4 223.07 6.74
 3 13 4 196.59 6.05
 3 13 -4 227.81 7.3
 -3 13 -4 224.61 6.99
 -3 -13 -4 230.45 7.1
 3 -13 4 234.25 7.4
 -3 -13 4 227.99 6.93
 3 -13 -4 219.73 7.21
 -3 -13 4 239.81 7.41
 -3 13 -4 215.21 7.01
 3 13 5 15.7 1.74
 3 -13 -5 15.84 1.95
 3 13 -5 13.18 1.93
 3 -13 5 19.72 2.11
 3 -13 -5 16.26 2.04
 -3 13 5 15.1 1.74
 -3 -14 0 0.04 0.23
 -3 14 0 0.04 0.18
 -3 14 0 -0.05 0.31
 -3 14 0 0.04 0.18
 -3 -14 0 0.05 0.21
 3 14 0 0.08 0.22
 3 -14 0 0.05 0.26
 3 -14 0 0.09 0.32
 3 14 1 210.39 6.7
 3 14 -1 214.73 6.81
 -3 14 -1 208.2 7.01
 3 -14 1 215.22 7.15
 -3 14 1 224.87 6.98
 3 14 1 224.07 6.9
 -3 14 1 213.67 6.68
 -3 14 -1 235.5 7.03
 -3 -14 -1 201.17 7.18
 3 -14 1 191.12 7.05
 3 -14 -1 199.86 7.16
 3 -14 -1 219.07 7.24
 -3 14 -1 200.49 6.51
 3 -14 1 214.34 7.28
 -3 -14 -1 218.32 6.98
 -3 -14 1 201.51 6.78
 3 14 2 186.72 6.07
 -3 14 -2 198.64 6.63
 -3 14 2 185.29 6.14
 3 -14 -2 208.95 7.27
 3 14 2 197.74 6.52
 -3 14 -2 196.34 6.87
 3 -14 2 207.44 6.95
 3 -14 2 207 7.11
 3 -14 -2 172.1 6.58
 -3 -14 -2 191.8 6.66
 -3 -14 2 191.43 6.45
 3 14 -3 72.73 4.16
 3 14 3 64.35 3.48
 -3 14 3 69.94 3.75
 -3 -14 -3 75.81 4.17
 -3 -14 3 70.56 4.01
 3 14 -3 61.3 4.02
 3 -14 -3 70.59 4.19
 -3 -14 -3 73.29 4.17
 3 -14 3 75.14 4.17
 3 14 3 74.88 3.92
 -3 14 -3 72.35 4.18
 -3 14 3 71.56 3.8
 3 -14 -3 72.39 4.33
 3 14 3 71.81 3.76
 3 -14 -4 184.74 6.73
 3 -14 -4 191.53 7.03
 3 14 4 173.21 5.96
 -3 14 -4 186.53 6.44
 3 -14 4 192.54 6.61
 -3 -15 0 0.05 0.21
 -3 -15 0 -0.24 0.26
 3 15 0 0.04 0.22
 3 -15 0 0.65 0.43
 -3 15 0 0.04 0.24
 3 -15 0 0.15 0.29
 3 15 0 0.5 0.37
 -3 15 0 0.17 0.28
 -3 -15 -1 114.23 5.44
 3 -15 -1 90.31 4.76
 -3 -15 1 120.45 5.2
 -3 -15 -1 110.43 4.99
 -3 15 1 112.17 4.95
 3 15 1 114.77 4.99
 3 -15 1 114.23 5.42
 -3 15 -1 104.4 5.06
 3 -15 1 110.46 5.28
 3 15 -1 112.53 4.94
 3 -15 -1 98.09 4.84
 -3 -15 2 61.09 3.8
 -3 -15 -2 63.11 3.89
 -3 15 -2 55.97 3.73
 3 -15 -2 54.71 3.74
 -3 -15 -2 59.53 3.99
 3 -15 2 65.25 4.07
 3 15 2 63.59 3.81
 -3 15 2 52.13 3.37
 3 -15 -2 56.27 3.98
 3 15 2 61.21 3.51
 3 15 -2 59.74 3.71
 3 -15 -3 5.7 1.37
 -3 15 -3 7.14 1.3
 -3 16 0 -0.05 0.23
 3 -16 0 0.15 0.27
 3 -16 1 111.08 5.79
 3 16 1 121.43 5.18
 -3 16 1 130.17 5.33
 4 0 0 1247.51 8.65
 4 0 0 1239.12 7.28
 4 0 0 1232.1 8.13
 -4 0 -1 797.06 4.97
 4 0 1 954.16 5.2
 4 0 -1 843.59 7.16
 -4 0 1 799.92 7.23
 4 0 1 848.25 6.97
 -4 0 1 779.63 5.76
 4 0 1 879.03 5.59
 4 0 -1 835.44 6.3
 -4 0 1 875.9 6.24
 -4 0 -1 850.27 8.04
 4 0 1 877.92 8.3
 4 0 -2 3246.42 17.31
 4 0 -2 3344.77 12.6
 -4 0 2 3424.3 13.72
 -4 0 -2 3157.85 14.79
 -4 0 -2 3499.51 18.08
 4 0 2 3270.08 14.3
 -4 0 2 3303.97 19.68
 4 0 2 3431.54 17.22
 4 0 -2 3303.22 18.07
 4 0 2 3506.11 18.22
 4 0 2 3543.35 19.46
 -4 0 3 189.91 3.78
 4 0 3 217.78 5
 -4 0 -3 222.66 4.85
 -4 0 -3 221.35 4.91
 4 0 3 200.63 4.73
 4 0 3 192.69 5
 4 0 3 206.45 4.35
 -4 0 3 195.47 2.7
 4 0 -3 205.85 5.42
 -4 0 3 212.09 5.48
 4 0 -3 228.81 3.96
 -4 0 4 1.02 0.44
 4 0 4 0.85 0.33
 -4 0 4 0.38 0.15
 -4 0 -4 0.62 0.3
 4 0 -4 0.29 0.15
 4 0 4 0.57 0.33
 -4 0 4 1.22 0.35
 4 0 4 0.47 0.28
 4 0 -4 0.39 0.28
 -4 0 -4 0.39 0.26
 4 0 5 -0.03 0.19
 4 0 5 0.06 0.19
 -4 0 -5 0.03 0.26
 -4 0 -5 0.03 0.11
 4 0 -5 0.3 0.17
 4 0 -5 0.04 0.2
 -4 0 -5 0.4 0.26
 -4 0 5 0.42 0.18
 4 0 5 0.03 0.18
 -4 0 5 0.46 0.36
 4 0 5 0.05 0.17
 4 0 6 657 10.78
 -4 0 6 660.66 9.99
 4 0 6 652.13 10.82
 -4 0 -6 621.9 10.82
 -4 0 -6 688.06 10.79
 4 0 6 664.03 10.7
 -4 0 -6 677.26 10.1
 -4 0 -6 626.94 11.52
 4 0 6 656.4 10
 -4 0 6 653.75 11.44
 -4 0 -7 50.51 3.31
 4 0 7 50.28 3.11
 -4 0 -7 54.06 3.12
 -4 0 -7 52.14 2.91
 4 0 7 47.32 2.98
 4 0 7 47.72 3.05
 4 0 -7 45.75 3.26
 -4 0 -7 48.55 3.09
 -4 0 7 51.65 3.3
 4 0 7 47.28 2.81
 4 0 8 357.27 8.38
 4 0 8 309.92 7.86
 -4 0 -8 340.23 8.44
 4 0 -8 334.03 8.63
 -4 0 -8 368.24 7.98
 -4 0 8 341.89 8.35
 -4 0 -9 3.36 0.85
 -4 0 -9 3.73 0.82
 4 0 9 3.65 0.81
 4 -1 0 0.84 0.24
 4 -1 0 0.46 0.19
 -4 -1 0 0.58 0.17
 4 1 0 0.32 0.17
 -4 1 0 0.23 0.14
 -4 -1 0 0.41 0.18
 4 -1 0 0.35 0.17
 4 1 0 0.43 0.17
 4 -1 -1 662.6 4.15
 -4 1 1 711.54 4.29
 4 1 -1 678.02 6.65
 4 1 1 821.04 8.31
 -4 -1 -1 690.15 7.66
 4 -1 1 674.82 5.82
 4 1 -1 679.7 6.68
 -4 1 -1 707.4 4.3
 4 -1 1 692.07 4.51
 4 -1 -1 701.2 6.28
 -4 -1 -1 676.98 5.4
 4 -1 -1 631.18 6.51
 4 1 -1 674.3 5.76
 4 -1 1 714.7 7
 4 1 1 738.62 7.63
 -4 -1 1 728.04 6.48
 -4 1 1 724.17 6.5
 -4 -1 1 636.93 4.66
 -4 1 1 644.17 4.97
 -4 1 -1 751.66 7.57
 -4 -1 -1 701.46 6.49
 -4 1 -1 668.62 5.57
 -4 -1 1 743.23 6.59
 -4 -1 -1 721.77 4.72
 4 1 1 727.44 3.99
 4 1 1 706.03 7.37
 4 -1 1 733.54 7.79
 4 1 -1 676.35 5.16
 4 -1 -1 711.55 6.6
 -4 1 -2 5.29 0.61
 4 -1 -2 5.08 0.71
 -4 -1 -2 5.19 0.62
 4 1 2 5.45 0.57
 4 -1 2 4.79 0.59
 -4 -1 -2 5.15 0.72
 4 -1 2 4.95 0.7
 -4 -1 -2 5.61 0.72
 -4 1 -2 5 0.7
 -4 1 2 3.75 0.34
 4 1 2 5.57 0.73
 -4 -1 2 3.83 0.29
 -4 1 -2 5.27 0.75
 4 -1 -2 5.03 0.36
 4 1 -2 4.87 0.57
 -4 -1 2 4.53 0.41
 -4 1 2 5.49 0.62
 4 -1 2 4.82 0.7
 -4 -1 3 3619.31 21.75
 4 1 3 3599.01 17.93
 4 -1 3 3410 18.41
 4 -1 -3 3381.3 21.78
 4 1 -3 3358.46 14.75
 4 1 3 3731.61 20.72
 4 1 -3 3569.47 17.42
 4 -1 -3 3541.11 13.56
 4 -1 3 3713.43 21.33
 -4 -1 -3 3483.96 21.17
 -4 1 -3 3943.26 22.43
 4 1 3 3800.5 21.89
 -4 -1 3 3544.93 14.55
 -4 1 3 3554.73 14.41
 4 1 -3 3766.41 22.86
 -4 -1 -3 3569.03 19.77
 4 -1 -3 3730.3 22.46
 -4 1 3 3171.72 23.24
 -4 1 -3 3762.78 20.41
 -4 -1 -3 3583.41 19.7
 4 -1 3 3511.58 20.38
 4 1 -4 7.45 0.78
 -4 -1 -4 9.49 1.09
 -4 1 -4 10.6 1.15
 4 -1 4 9.78 1.2
 4 1 -4 7.82 1.16
 -4 1 -4 9.12 1.14
 -4 -1 4 8.73 0.88
 -4 1 4 8.29 0.97
 4 1 4 11.4 1.28
 4 -1 -4 9.29 0.87
 4 1 -4 8.25 0.95
 4 -1 -4 8.21 1.18
 -4 -1 -4 7.63 1.02
 4 -1 4 8.23 1.13
 -4 1 4 9 1.26
 4 1 4 8.91 1.02
 -4 -1 4 9.37 1.23
 4 1 4 8.29 1.03
 -4 1 4 9.54 0.84
 4 1 -5 964.32 10.15
 4 1 5 1137.89 13.51
 -4 -1 5 1149.82 11.45
 -4 1 5 1111.11 12.25
 4 -1 -5 1070.66 14.33
 -4 -1 -5 1119.88 13.56
 -4 1 -5 1078.65 14.33
 -4 -1 -5 1177.75 14.82
 4 -1 -5 1148.98 11.27
 4 1 -5 1154.68 12.65
 4 -1 5 1104.53 13.81
 -4 1 5 1078.41 9.87
 4 1 5 1150.44 12.88
 -4 1 -5 1168.72 14.05
 4 1 -5 1079.02 14.45
 -4 -1 5 1076.87 14
 4 1 5 1114.42 12.34
 4 -1 5 1119.56 12.86
 -4 1 -5 1133.6 12.56
 -4 -1 -5 1208.8 13.18
 4 -1 5 1182.29 13.76
 4 1 6 19.14 1.82
 -4 1 6 19.17 1.74
 4 1 6 19.14 1.76
 4 -1 6 18.76 1.83
 4 -1 -6 15.91 1.84
 -4 -1 -6 18.02 1.82
 4 1 -6 16.58 1.64
 -4 1 -6 18.53 1.88
 4 1 -6 16.25 1.84
 -4 -1 -6 19.43 1.69
 -4 1 -6 20.14 1.78
 4 -1 6 18.34 1.85
 -4 1 6 16.95 1.85
 4 1 6 18.75 1.7
 -4 -1 6 17.63 1.85
 4 -1 6 18.19 1.71
 -4 1 -6 18.55 1.8
 4 -1 7 35.03 2.57
 4 1 7 33.18 2.47
 -4 -1 -7 33.62 2.75
 -4 -1 -7 31.09 2.47
 4 -1 7 32.7 2.54
 4 1 7 29.39 2.18
 -4 1 7 31.82 2.62
 -4 -1 7 31.79 2.55
 4 -1 7 29.49 2.27
 4 1 7 34.32 2.56
 -4 -1 -7 36.3 2.38
 4 -1 7 33.44 2.55
 -4 1 -7 28.85 2.45
 4 -1 -7 27.96 2.52
 4 1 -7 29.16 2.56
 -4 -1 -7 32.74 2.38
 -4 1 -7 31.85 2.34
 -4 1 -8 0.2 0.25
 -4 -1 -8 0.12 0.22
 -4 1 -8 0.27 0.26
 4 1 8 0.18 0.25
 4 1 8 0.06 0.16
 4 -1 8 0.13 0.24
 -4 -1 8 0.38 0.35
 4 1 8 0.1 0.21
 -4 -1 -8 0.33 0.36
 4 1 9 30.37 2.29
 -4 -1 -9 32.13 2.6
 4 -2 0 3607.49 16.34
 -4 2 0 3550.37 15.61
 4 2 0 3658.7 15.12
 4 -2 0 3778.78 17.95
 -4 2 0 3499.15 14.51
 4 2 0 3809.34 18.33
 4 -2 0 3688.73 16.19
 -4 2 0 3647.33 16.3
 -4 -2 0 3811.09 15.12
 -4 -2 1 453.7 5.66
 -4 2 -1 456.02 6.21
 4 2 -1 486.86 6.1
 4 -2 -1 458.77 5.5
 -4 -2 -1 465.67 5.11
 4 -2 -1 455.16 6.22
 4 2 -1 463.33 5.94
 -4 2 1 436.58 4.01
 4 -2 1 453.47 6.02
 4 2 1 447.62 4.29
 -4 -2 -1 488.97 5.88
 4 2 1 456.27 6.03
 -4 -2 1 438.33 4.5
 4 2 1 470.63 3.2
 4 2 -1 443.34 4.28
 -4 2 1 487.69 5.86
 4 -2 1 447.86 5.47
 -4 2 -2 905.81 8.06
 4 2 -2 935.9 10.29
 -4 -2 -2 883.88 8.69
 4 2 2 933.18 7.54
 -4 -2 2 827.75 8.34
 4 -2 -2 830.79 9.84
 4 -2 2 910.88 9.86
 -4 -2 -2 946.09 9.6
 4 -2 -2 785 8.6
 4 2 2 880.08 9.95
 -4 2 -2 915.15 9.48
 4 2 2 938.83 9.65
 -4 2 -2 869.86 9.79
 -4 -2 -2 947.18 9.7
 4 2 -2 885.85 8.74
 4 -2 2 906.32 9.78
 4 2 -3 1.34 0.38
 4 -2 -3 1.47 0.24
 -4 2 -3 1.17 0.41
 -4 2 -3 1.74 0.45
 4 -2 -3 1.85 0.51
 -4 -2 -3 1.4 0.41
 4 2 -3 1.33 0.46
 4 -2 -3 1.61 0.49
 -4 2 3 0.95 0.4
 4 -2 3 2.41 0.55
 4 -2 3 4.28 0.76
 4 2 -3 1.02 0.3
 4 2 3 1.36 0.43
 -4 -2 3 1.16 0.23
 4 2 3 1.42 0.37
 -4 -2 3 1.69 0.47
 -4 2 3 2.61 0.51
 -4 2 3 1.2 0.31
 4 -2 -3 3.11 0.67
 4 2 3 1.27 0.39
 -4 -2 -3 1.24 0.42
 -4 2 -3 1.15 0.37
 -4 -2 -3 1.67 0.45
 4 2 -4 0.54 0.25
 -4 -2 -4 0.43 0.25
 -4 2 -4 1.63 0.5
 -4 2 -4 0.44 0.26
 -4 -2 -4 0.61 0.32
 4 -2 -4 0.44 0.28
 4 2 -4 0.26 0.23
 4 2 4 0.62 0.31
 4 -2 -4 0.13 0.28
 -4 -2 -4 1.07 0.45
 4 -2 -4 0.62 0.22
 4 2 -4 0.28 0.22
 -4 2 -4 0.9 0.36
 4 -2 4 0.95 0.37
 -4 2 4 2.62 0.75
 -4 -2 4 0.63 0.34
 4 2 4 1.49 0.43
 4 -2 4 0.47 0.29
 4 -2 -4 1.42 0.52
 -4 -2 4 0.5 0.21
 -4 2 4 0.59 0.28
 4 2 4 0.35 0.25
 -4 -2 -5 0.29 0.23
 -4 2 -5 0.19 0.23
 4 2 -5 0.42 0.24
 -4 2 -5 0.22 0.25
 4 -2 -5 0.33 0.21
 -4 2 5 0.17 0.22
 4 2 5 0.39 0.3
 -4 2 5 0.5 0.24
 4 -2 5 0.27 0.27
 4 -2 5 0.53 0.32
 -4 2 5 0.07 0.25
 4 2 5 1.08 0.45
 -4 2 -5 0.56 0.34
 -4 -2 -5 0.25 0.26
 4 -2 -5 1.07 0.52
 4 -2 5 0.4 0.33
 -4 2 -6 850.41 11.42
 -4 -2 -6 932.55 12.02
 -4 2 6 859.36 13.16
 4 2 6 888.82 11.74
 4 -2 6 836.8 11.57
 -4 -2 -6 840.91 12.4
 4 -2 -6 834.78 13.12
 -4 2 -6 867.66 12.01
 -4 -2 -6 925.62 13.62
 -4 2 6 874.63 11.93
 4 -2 6 889.43 13.01
 4 2 6 855.11 11.54
 4 2 -6 780.19 12.84
 -4 2 -6 858.95 12.94
 4 2 -6 907.79 12.46
 4 2 7 18.44 1.83
 -4 2 -7 17.65 1.69
 -4 -2 -7 19.93 1.75
 4 -2 7 17.93 1.91
 -4 -2 -7 20.04 2.09
 4 -2 -7 17.19 1.97
 -4 -2 -7 20.38 2.02
 4 2 -7 17.36 1.94
 -4 2 -7 17.72 1.9
 -4 2 7 16.7 1.87
 4 2 7 18.6 1.74
 4 -2 7 17.07 1.73
 -4 2 -7 18.72 1.8
 -4 -2 -8 351.63 8.53
 4 2 8 355.2 8.13
 -4 2 8 324.51 8.13
 4 2 8 328.24 7.52
 4 -2 8 322.01 7.6
 4 2 -8 317.08 8.33
 -4 2 -8 331.89 8.28
 -4 2 -8 320.03 7.37
 -4 3 0 0.52 0.18
 -4 -3 0 0.43 0.12
 4 3 0 1.49 0.2
 4 -3 0 0.22 0.13
 4 -3 0 0.42 0.23
 4 3 0 0.64 0.21
 -4 3 0 0.15 0.13
 4 -3 0 0.43 0.23
 -4 -3 0 0.39 0.21
 -4 3 0 0.25 0.18
 4 -3 0 1.23 0.17
 4 3 0 0.41 0.19
 4 -3 0 0.58 0.27
 -4 3 1 1397.85 5.54
 -4 3 -1 1351.72 10.4
 4 3 -1 1439.62 11.83
 4 -3 -1 1361.04 10.24
 -4 -3 -1 1355.09 10.18
 4 -3 -1 1382.54 11.8
 -4 -3 1 1409.09 7.1
 4 -3 1 1346.08 11.17
 -4 -3 1 1315.57 6.29
 4 3 1 1355.04 10.9
 4 -3 1 1383.67 12.17
 4 -3 -1 1200.89 8.06
 -4 -3 1 1403.32 8.24
 -4 3 1 1482.07 11.24
 -4 3 1 1395.55 8.43
 4 3 -1 1336.67 8.37
 4 3 1 1394.56 11.14
 -4 3 -1 1336.72 10.74
 4 3 1 1364.44 11.86
 4 -3 2 0.13 0.15
 4 -3 -2 0.53 0.29
 4 3 -2 0.03 0.04
 4 3 2 0.06 0.14
 4 -3 2 0.11 0.15
 4 3 -2 2.75 0.6
 4 -3 2 0.2 0.18
 -4 -3 2 0.06 0.13
 4 3 2 0.08 0.13
 -4 -3 -2 0.58 0.26
 -4 3 -2 0.31 0.2
 -4 -3 -2 2.99 0.53
 -4 3 -2 0.15 0.15
 4 -3 -2 0.26 0.2
 4 -3 -2 0.05 0.15
 -4 -3 -2 0.12 0.14
 -4 -3 2 0.15 0.19
 4 3 2 0.72 0.29
 -4 3 2 0.02 0.12
 -4 3 -2 0.02 0.11
 4 3 2 0.34 0.21
 4 -3 -3 614.17 4.22
 -4 3 -3 606.16 8.31
 4 3 -3 574.24 9.55
 -4 -3 -3 583.51 8.51
 -4 -3 3 566.82 8
 4 3 3 551.19 7.3
 4 -3 -3 580.42 9.56
 -4 -3 -3 643.83 9.25
 4 -3 -3 518.92 8.49
 -4 3 3 609.01 8.32
 4 3 -3 589.47 8.42
 -4 -3 -3 587.51 8.47
 4 -3 3 573.17 8.14
 -4 3 3 562.96 7.34
 4 -3 3 564.72 8.54
 4 3 -4 441.49 9.12
 -4 3 -4 475.6 8.49
 -4 -3 -4 450.08 8.21
 4 -3 -4 423.57 8.62
 -4 -3 4 427.44 7.79
 4 3 4 481.52 7.63
 4 -3 -4 436.17 8.96
 4 3 -4 437.26 7.31
 -4 3 -4 434.35 7.62
 -4 -3 4 349.84 4.5
 -4 3 4 361.26 8.16
 4 -3 4 443.73 8.39
 -4 -3 -4 478.63 8.79
 4 3 4 463.51 8.15
 4 -3 4 445.13 8.05
 -4 3 -4 455.83 8.08
 4 -3 -4 462.89 5.33
 4 3 -4 466.57 8
 -4 3 4 434.08 6.83
 4 3 4 450.88 7.83
 -4 -3 -4 422.45 7.43
 4 3 5 1023.24 12.13
 4 -3 -5 968.18 14.56
 4 3 -5 962.2 11.77
 4 -3 5 1031.13 13.8
 -4 -3 -5 1043.55 13.72
 4 -3 -5 1038.36 14.72
 -4 -3 -5 1084.8 13.7
 4 -3 -5 980.01 13.57
 4 3 5 1016.51 12.63
 -4 3 5 1037.94 12.64
 4 3 -5 1037.22 12.88
 -4 3 -5 1014.8 12.79
 4 3 -5 931.07 13.83
 -4 3 -5 1066.64 13.92
 -4 3 5 1042.69 11.46
 4 3 5 1015.25 12.27
 4 -3 5 1000.59 12.76
 -4 3 5 970.97 14.48
 -4 -3 -5 1068.89 12.13
 -4 3 -6 63.18 3.59
 4 -3 -6 67.44 3.74
 -4 -3 -6 67.42 3.59
 4 3 6 66.06 3.24
 4 3 -6 64.26 3.39
 4 -3 -6 66.59 3.96
 -4 -3 -6 68.34 3.72
 4 3 6 68.9 3.39
 -4 3 -6 62.56 3.14
 -4 -3 -6 70.69 3.29
 4 3 6 66.4 3.26
 -4 -3 6 63.85 3.4
 4 -3 6 60.82 3.17
 -4 3 -7 41.12 2.57
 -4 -3 -7 44.78 2.73
 4 -3 -7 42.76 3.04
 -4 -3 -7 41.82 2.9
 -4 3 -7 43.22 3.05
 -4 -3 -7 47.35 3.23
 4 3 7 43.46 2.78
 4 3 7 45.87 2.8
 -4 -3 7 43.17 2.94
 4 -3 7 42.04 2.7
 4 3 7 45.45 2.76
 -4 3 -7 42.81 2.72
 -4 -3 -8 1.8 0.65
 4 -3 8 0.94 0.47
 -4 -3 -8 1.55 0.56
 -4 3 8 1.75 0.65
 4 -3 8 1.12 0.47
 -4 -3 8 1.58 0.61
 4 3 8 1.91 0.58
 4 -3 -8 1.28 0.55
 4 3 -8 1.32 0.58
 -4 3 -8 0.95 0.5
 4 3 8 1.43 0.54
 -4 -3 -8 2.35 0.7
 4 -4 0 1915.58 14.26
 4 4 0 1864.24 11.49
 4 -4 0 1856.92 14.21
 -4 -4 0 1926.14 9.64
 4 -4 0 1874.14 8.99
 -4 -4 0 1987.87 13.69
 -4 4 0 1905.39 13.63
 4 4 0 2079.75 15.6
 4 -4 0 2059.73 12.55
 -4 4 0 1766 10.61
 4 4 1 458.29 7.23
 4 4 -1 434.85 6.93
 -4 4 1 441.53 4.23
 -4 4 -1 446.6 6.25
 4 -4 1 430.07 6.71
 -4 -4 1 440.75 5.05
 -4 4 -1 399.9 6.63
 4 -4 -1 424.36 6.41
 4 -4 -1 421.13 7.07
 4 -4 1 421.24 6.79
 -4 4 1 439.89 5.47
 4 -4 -1 363.65 4.9
 4 -4 1 451.76 7.62
 4 4 1 430.98 6.47
 4 4 -1 421.77 5.33
 4 -4 1 457.75 5.28
 -4 4 1 446.38 6.7
 -4 -4 -1 432.49 6.36
 -4 -4 1 435.06 6.68
 -4 4 -1 431.18 6.44
 -4 4 -2 1683.13 13.34
 -4 -4 -2 2018.37 15.51
 4 -4 2 1779.3 15.28
 4 4 -2 1670.02 8.86
 4 4 2 1647.63 13.46
 -4 4 2 1626.67 7.77
 4 4 2 1872.94 14.63
 4 4 -2 1708.5 14.5
 4 -4 -2 1643.93 5.65
 -4 4 -2 1682.46 13.55
 -4 4 -2 1804.33 13.55
 4 4 -2 1668.91 14.88
 4 -4 -2 1645.88 14.11
 -4 -4 -2 1695.04 13.68
 4 -4 -2 1673.66 15.28
 4 4 2 1576.86 11.27
 4 -4 -2 1652.16 12.94
 4 -4 2 1759.62 14.9
 -4 -4 2 1672.09 11.04
 4 4 2 1879.5 14.71
 -4 4 2 1767.92 9.98
 4 4 -2 1510.32 14.38
 -4 -4 -2 1792.89 14.27
 -4 4 2 1728.08 13.81
 4 -4 2 1578.44 13.6
 -4 -4 2 1729.33 12.2
 -4 -4 2 1688.84 14.68
 -4 -4 -3 3.43 0.7
 4 -4 -3 3.1 0.69
 -4 4 -3 6.24 0.9
 4 -4 -3 3.79 0.81
 4 -4 3 3.55 0.74
 -4 -4 3 3.17 0.6
 -4 4 3 3.45 0.65
 -4 -4 3 3.17 0.61
 4 4 3 3.86 0.73
 4 4 -3 3.59 0.7
 -4 4 -3 5.55 0.84
 -4 4 -3 3.78 0.71
 4 4 3 3.37 0.65
 4 4 3 2.82 0.57
 -4 -4 -3 3.42 0.71
 4 -4 -3 2.87 0.65
 4 4 -3 3.35 0.68
 4 -4 -4 0.79 0.4
 4 4 -4 0.66 0.39
 -4 -4 -4 1.3 0.48
 4 -4 4 0.68 0.34
 4 4 4 0.59 0.29
 -4 -4 4 0.81 0.36
 -4 4 4 1.24 0.47
 4 -4 4 0.5 0.32
 4 -4 -4 1.02 0.46
 4 -4 -4 1.54 0.55
 4 4 4 0.67 0.32
 -4 4 4 0.78 0.33
 4 -4 4 0.88 0.4
 -4 4 4 0.95 0.39
 4 4 4 0.66 0.33
 4 4 -4 0.56 0.34
 -4 4 -4 1.2 0.41
 -4 -4 -4 0.79 0.36
 -4 4 -4 0.35 0.25
 4 -4 -4 1.18 0.29
 4 4 -4 1.74 0.56
 4 4 5 4.65 0.84
 -4 -4 5 4.48 0.88
 4 -4 -5 4.79 1.02
 4 4 -5 4.57 0.91
 4 -4 5 6.93 1.15
 4 4 5 5.61 0.96
 -4 4 5 4.88 0.9
 -4 -4 -5 4.38 0.93
 4 -4 -5 5.39 1.09
 -4 4 -5 4.54 0.85
 4 4 5 4.81 0.85
 -4 4 5 4.17 0.99
 -4 4 -5 4.93 0.86
 -4 -4 -5 5.6 0.9
 4 4 -5 5.79 1.02
 4 -4 5 4.68 0.9
 4 4 -5 4.96 1.06
 -4 4 -5 5.2 0.99
 4 4 -6 634.39 11.07
 4 -4 6 560.77 10.53
 4 4 6 581.15 9.63
 -4 4 6 605.21 10.29
 -4 -4 -6 600.79 11.03
 4 -4 -6 558.14 12.09
 -4 4 6 565.64 11.13
 -4 -4 -6 612.24 10.97
 4 -4 -6 566.22 10.95
 4 -4 6 577.97 10.39
 4 4 6 608.11 9.78
 -4 4 -6 579.46 9.86
 -4 4 -6 585.83 9.7
 -4 -4 -6 622.61 9.71
 -4 4 -6 562.26 10.85
 4 4 -6 575.49 11.65
 -4 -4 6 633.62 10.79
 4 4 6 625.89 10.05
 4 4 7 2.69 0.68
 4 -4 -7 2.81 0.81
 -4 -4 -7 3.74 0.89
 4 4 7 3.12 0.75
 -4 4 7 2.57 0.79
 4 -4 -7 2.98 0.91
 -4 -4 -7 3.08 0.85
 -4 4 -7 2.41 0.66
 -4 4 7 2.24 0.67
 -4 -4 7 2.88 0.83
 4 -4 7 3.49 0.88
 -4 4 -7 2.86 0.81
 -4 4 -7 2.63 0.69
 -4 4 -8 731.35 11.55
 -4 -4 8 662.45 12.71
 4 -4 8 655.18 11.82
 -4 4 -8 694.95 12.63
 4 4 -8 642.29 12.49
 4 4 8 721.65 11.24
 -4 4 8 634.54 11.35
 4 -4 8 608.91 10.53
 -4 -4 8 759.68 12.41
 4 -4 -8 664.25 12.03
 -4 -4 -8 708.6 12.2
 -4 -4 -8 690.36 12.73
 -4 5 0 2.03 0.45
 4 -5 0 2.47 0.4
 -4 -5 0 2.38 0.52
 -4 5 0 2.31 0.43
 -4 5 0 2.28 0.51
 -4 -5 0 2.16 0.38
 4 -5 0 2.31 0.55
 4 -5 0 1.96 0.51
 4 5 0 2.86 0.61
 4 5 0 1.92 0.45
 4 -5 1 764.26 10.73
 4 5 1 632.06 8.21
 4 5 -1 619.47 5.74
 -4 5 -1 638.71 8.16
 -4 5 1 667.85 7.54
 -4 -5 -1 674.76 9.05
 4 -5 -1 686.32 8.82
 -4 -5 -1 707.2 6.94
 4 -5 -1 678.14 9.53
 4 -5 1 669.51 9.13
 -4 -5 1 647.91 5.18
 -4 5 -1 655.17 8.54
 -4 5 1 693.97 9
 4 -5 1 687.09 7.21
 -4 5 1 647.25 6.28
 -4 5 -1 686.99 8.27
 -4 -5 -1 670.57 8.46
 4 -5 -1 608.03 6.97
 -4 -5 1 632.82 8.74
 4 -5 1 668.86 9.04
 -4 -5 1 727.88 7.17
 4 5 -1 684.52 7.7
 4 5 1 663.07 8.53
 4 5 -1 673.58 9.32
 4 5 1 762.88 9.88
 -4 -5 -2 330.06 6.4
 -4 5 2 324.36 3.91
 -4 5 -2 317.23 6.18
 4 5 -2 322.97 6.66
 4 -5 2 322.07 6.3
 4 5 -2 328.02 7.09
 4 -5 -2 305.2 6.39
 -4 -5 -2 314.26 6.26
 -4 -5 2 324.83 4.86
 -4 5 2 327.41 5.04
 4 5 2 347.14 6.54
 4 5 -2 304 6.97
 4 5 -2 328.9 4.79
 4 -5 2 338.28 7.1
 4 -5 2 336.07 6.04
 -4 -5 2 324.56 6.61
 -4 5 2 329.33 6.32
 -4 -5 2 312.02 5.43
 4 5 3 2038.8 16.12
 -4 5 -3 2138.52 17.76
 4 5 -3 2128.63 17.92
 4 -5 3 2091.79 17.25
 -4 5 -3 2107.19 17.09
 4 5 -3 2094.21 19.45
 4 -5 -3 2105.35 18.35
 -4 -5 -3 2016.4 16.95
 -4 -5 3 2038.68 15.54
 4 -5 -3 2119.44 19.05
 4 5 3 2155.25 16.33
 -4 5 -3 2067.58 16.68
 4 5 -3 2105.01 18.31
 4 -5 3 2128.29 18.11
 -4 -5 3 1959.55 15.09
 4 5 3 2194.09 17.21
 4 -5 -3 2169.99 18.13
 -4 -5 -3 2270.7 18.12
 4 5 -3 1883.91 10
 4 5 3 2090.87 16.3
 -4 -5 -3 2250.95 18.36
 -4 5 3 2105.53 17.2
 -4 -5 3 2068.66 19.15
 -4 5 3 2112.16 16.56
 4 -5 3 2102.61 18.36
 -4 5 4 51.22 2.81
 4 5 -4 47.7 2.85
 -4 5 -4 45.38 2.65
 4 5 -4 46.09 3.09
 -4 5 -4 46.91 2.79
 4 -5 -4 45.25 2.87
 -4 -5 -4 45.58 2.71
 -4 -5 4 47.7 2.62
 4 -5 -4 50.44 3.13
 -4 5 4 40.76 2.62
 4 5 -4 45.22 2.82
 4 -5 4 48.31 2.95
 -4 -5 4 42.56 2.5
 4 -5 -4 46.82 2.92
 -4 -5 -4 50.99 2.95
 4 5 4 46.81 2.69
 -4 5 -4 45.76 2.59
 4 -5 4 47.99 2.87
 -4 5 4 48.11 2.57
 4 -5 4 46.01 2.67
 4 5 4 47.81 2.66
 4 -5 -4 43.63 1.52
 -4 -5 -4 44.9 2.63
 4 -5 -5 265.04 7.43
 -4 -5 -5 286.07 7.21
 4 5 5 277.66 6.54
 -4 -5 5 282.74 6.85
 4 -5 -5 281.67 7.87
 -4 5 5 230.81 6.84
 4 5 5 261.5 6.24
 -4 5 5 265.97 6.7
 4 -5 -5 273.55 7.59
 -4 -5 -5 289.67 7.35
 4 5 5 288.82 6.76
 -4 5 5 270.44 6.49
 -4 5 -5 282.98 7.35
 4 5 -5 276.18 7.99
 4 -5 5 300.01 7.23
 -4 -5 5 249.55 6.62
 4 -5 5 282.43 7.27
 4 5 -5 257.98 7.13
 -4 5 -5 263.65 6.62
 4 -5 5 288.78 6.95
 -4 -5 6 4.43 0.95
 4 -5 6 4.56 0.99
 4 5 6 6.19 1.05
 -4 5 6 4.61 0.92
 -4 5 -6 4.04 0.95
 4 5 -6 4 0.99
 -4 -5 -6 4.42 0.96
 4 -5 -6 5 1.11
 4 -5 6 4.32 0.91
 4 5 -6 3.41 0.85
 -4 5 -6 5.02 0.95
 -4 5 -6 4.18 0.85
 4 -5 6 5.52 1.01
 -4 -5 6 5.77 1.03
 4 5 6 4.55 0.9
 -4 -5 -6 4.07 0.81
 -4 5 6 3.94 0.96
 4 -5 -6 4.99 1.06
 4 5 -7 69 4.16
 -4 5 -7 74.7 4.12
 -4 -5 -7 78.73 4.14
 4 -5 -7 73.78 4.38
 4 5 7 74.61 3.6
 4 -5 7 74.99 3.71
 -4 -5 7 76.16 3.87
 -4 -5 7 72.65 4.1
 4 -5 7 74.29 3.87
 4 5 7 78.31 3.62
 -4 5 7 72.55 3.7
 -4 5 7 64.51 3.68
 4 5 7 78.59 3.64
 4 5 -7 84.71 4.31
 -4 5 -7 73.19 3.65
 -4 5 -7 73.73 3.63
 -4 5 -8 0.21 0.23
 -4 -5 -8 0.11 0.28
 4 5 -8 0.09 0.22
 -4 -5 -8 0.24 0.34
 4 -5 8 0.53 0.42
 4 -5 8 0.4 0.32
 -4 5 8 0.19 0.27
 -4 -5 8 0.26 0.3
 4 5 8 0.55 0.35
 4 -6 0 524.13 8.78
 -4 -6 0 505.61 6.83
 4 -6 0 520.06 6.5
 -4 -6 0 558.05 8.35
 -4 6 0 567.94 8.1
 4 6 0 558.36 8.15
 -4 6 0 530.44 7.02
 -4 6 0 571.59 8.38
 4 -6 0 533.89 8.48
 -4 -6 1 82.67 2.14
 -4 6 -1 89.17 3.18
 -4 6 1 86.31 2.61
 4 6 1 85.18 3.17
 4 6 1 86.05 3.24
 -4 -6 1 84.93 2.76
 -4 -6 -1 89.35 2.65
 -4 6 -1 86 3.25
 4 6 -1 91.79 3.16
 -4 -6 -1 89.49 3.56
 4 -6 -1 78.96 3.33
 -4 6 1 82.53 2.98
 -4 6 -1 82.49 3.22
 4 6 -2 1225.21 13.72
 -4 -6 2 1243.37 11.42
 4 -6 2 1231.69 13.1
 4 6 2 1256.84 12.89
 4 -6 -2 1338.69 14.23
 -4 6 -2 1313.59 13.18
 4 -6 -2 1146.73 14.3
 -4 -6 -2 1321.71 12.35
 -4 -6 2 1265.17 10.05
 4 -6 2 1304.65 13.79
 -4 6 -2 1221.29 12.69
 4 -6 -2 1303.18 12.67
 4 6 -2 1329.76 11.1
 -4 6 2 1311.62 13.41
 4 -6 2 1332.25 15.28
 -4 -6 2 1281.21 13.95
 4 -6 2 1253.58 12.09
 4 6 2 1328.04 13.26
 -4 6 2 1219 9.65
 -4 -6 -2 1297.44 13.28
 4 6 3 34.36 2.18
 -4 6 -3 31.75 2.19
 4 -6 3 32.56 2.21
 -4 6 -3 31.91 2.32
 4 6 -3 32.53 2.47
 4 -6 -3 33.56 2.38
 -4 -6 -3 34.4 2.3
 4 -6 -3 31.7 2.41
 4 -6 3 34 2.37
 -4 -6 3 31.32 1.9
 4 6 3 29.62 2.11
 -4 -6 -3 31.34 2.2
 4 -6 -3 31.97 2.24
 -4 -6 -3 32.11 2.23
 4 -6 3 31.52 2.38
 -4 6 3 31.35 2.11
 4 6 -3 32.3 1.56
 -4 6 -3 30.27 2.07
 4 6 -3 31.02 2.37
 4 6 3 30.03 2.05
 -4 6 3 32.54 2.21
 -4 -6 3 32.39 2.43
 4 6 3 31.49 1.92
 4 -6 -4 0.04 0.23
 4 -6 4 0.21 0.31
 4 6 -4 1.1 0.48
 -4 6 -4 0.06 0.19
 4 6 4 0.17 0.16
 4 -6 4 0.26 0.24
 -4 6 4 0.66 0.35
 -4 -6 -4 0.97 0.42
 -4 6 -4 0.1 0.19
 4 6 -4 1.3 0.55
 4 -6 -4 0.25 0.23
 4 -6 -4 0.14 0.25
 -4 -6 4 0.16 0.26
 -4 -6 -4 0.27 0.29
 4 6 4 0.17 0.26
 4 -6 4 0.25 0.25
 -4 -6 4 0.03 0.18
 4 6 4 0.34 0.29
 -4 6 -4 0.17 0.18
 4 6 -4 0.17 0.23
 -4 -6 -4 0.23 0.24
 -4 -6 5 0.17 0.28
 4 -6 -5 0.46 0.4
 4 -6 5 0.75 0.44
 -4 -6 5 0.8 0.53
 4 -6 -5 0.24 0.34
 -4 -6 -5 0.25 0.29
 4 -6 5 1.05 0.45
 -4 -6 5 1.19 0.46
 -4 6 5 0.18 0.26
 4 6 5 0.28 0.26
 4 -6 -5 0.24 0.27
 -4 6 -5 0.07 0.19
 4 6 -5 0.92 0.49
 -4 -6 -5 0.36 0.31
 -4 6 5 0.54 0.33
 4 6 5 0.43 0.28
 4 6 5 0.56 0.33
 -4 6 5 0.23 0.26
 -4 -6 -5 0.28 0.25
 4 6 -5 0.37 0.32
 -4 6 -5 0.31 0.25
 4 6 -5 0.33 0.3
 -4 6 -5 0.26 0.24
 -4 -6 6 519.78 9.83
 4 6 6 517.06 9.37
 4 -6 -6 514.18 10.99
 -4 -6 -6 508.64 9
 4 -6 6 517.06 10.27
 -4 -6 6 500.82 10.34
 -4 6 6 511.69 9.6
 4 6 6 512.39 9.36
 -4 -6 -6 540.1 10.48
 4 -6 -6 503.94 10.57
 -4 -6 -6 518.16 10.17
 4 6 6 540.85 9.35
 -4 6 -6 486.17 9.01
 4 -6 6 523.02 9.75
 -4 6 -6 498.26 9.46
 4 6 -6 525.92 11.3
 -4 6 -6 503.17 10.51
 4 -6 6 497.28 9.94
 -4 -6 -7 0.32 0.3
 4 -6 -7 0.3 0.31
 -4 6 -7 0.17 0.28
 4 6 -7 0.23 0.27
 4 6 -7 0.25 0.31
 -4 6 -7 0.62 0.41
 4 6 7 0.31 0.29
 4 -6 7 0.19 0.3
 -4 -6 -7 0.43 0.34
 4 -6 7 0.35 0.3
 -4 -6 7 1.48 0.57
 -4 6 7 0.28 0.3
 4 6 7 0.45 0.31
 -4 6 7 0.36 0.29
 4 6 8 312.2 7.39
 4 -6 -8 267.33 8.88
 -4 -6 8 317.77 7.91
 4 -6 -8 282.2 7.84
 -4 -6 -8 291.09 7.79
 -4 6 -8 290.98 7.27
 4 -6 8 279.67 7.25
 4 -7 0 2.04 0.59
 4 -7 0 1.71 0.55
 4 7 0 1.64 0.43
 -4 7 0 1.63 0.48
 4 7 0 1.99 0.57
 4 7 0 1.7 0.49
 -4 -7 0 1.68 0.43
 4 -7 0 1.7 0.42
 -4 -7 0 1.78 0.53
 4 -7 0 1.16 0.46
 -4 7 0 1.5 0.42
 -4 7 0 1.66 0.49
 -4 -7 0 1.32 0.33
 -4 -7 -1 348.61 7.6
 4 -7 -1 363.26 7.56
 -4 -7 -1 374.7 6.11
 4 -7 -1 359.69 7.79
 -4 7 -1 357.31 6.92
 4 -7 1 339.47 7.18
 -4 -7 1 371.03 5.19
 4 7 -1 301.62 5.17
 4 7 1 364.01 6.8
 -4 7 -1 368.17 7.27
 -4 7 1 363.45 6.74
 4 7 1 404.05 7.96
 4 7 -1 356.44 7.55
 -4 -7 1 359.13 7.34
 4 -7 -1 347.14 6.27
 -4 -7 -1 331.69 6.79
 4 -7 1 371.38 6.44
 -4 7 -1 365.54 6.83
 4 7 1 363.73 7.11
 -4 7 1 359.69 7.21
 -4 -7 1 394.77 6.48
 4 -7 1 350.87 7.4
 4 7 -1 347.07 6.56
 -4 -7 2 88.1 3.21
 4 -7 2 91.11 3.79
 -4 7 -2 88.33 3.51
 4 7 -2 85.72 4.15
 4 -7 -2 87.87 3.5
 4 -7 -2 92.78 3.93
 4 -7 -2 84.34 3.8
 -4 -7 -2 95.9 3.47
 -4 7 -2 87.67 3.55
 4 7 -2 85.35 3.79
 4 -7 2 88.26 3.78
 -4 7 -2 86.52 3.62
 -4 7 2 91.95 3.41
 4 7 2 88.51 3.69
 -4 7 2 100.42 3.11
 -4 -7 2 88.76 3.84
 -4 -7 -2 81.03 3.51
 4 -7 2 83.17 3.3
 4 7 2 89.33 3.57
 4 7 2 87.88 3.57
 -4 7 2 95.58 3.81
 4 7 -2 89.88 3.17
 -4 7 -3 1060.79 13.04
 4 7 -3 1069.66 14.15
 -4 -7 3 1062.75 12.07
 4 7 -3 991.95 14.62
 4 -7 -3 1111.47 14.32
 -4 -7 -3 994.31 13.15
 4 7 3 998.5 11.15
 -4 -7 3 999.61 10.97
 4 7 -3 1012.37 14.72
 4 7 3 1023.75 12.82
 -4 7 3 1053.59 13.07
 -4 7 3 1065.17 12.81
 4 7 -3 994.55 10.1
 4 -7 3 1066.99 14.45
 4 -7 3 1005.62 12.93
 -4 7 3 1185.36 10.92
 -4 7 -3 1062.51 12.81
 -4 7 -4 190.67 5.72
 4 7 -4 196.27 6.2
 4 -7 4 191.78 5.81
 -4 7 -4 180.45 6.05
 4 7 -4 173.58 6.33
 4 -7 -4 204.09 6.34
 -4 -7 -4 185.54 5.76
 -4 -7 4 196.45 5.48
 4 -7 -4 204.63 6.6
 4 7 4 176.76 5.32
 4 7 -4 193.84 6.27
 -4 7 -4 204.01 5.81
 4 -7 4 195.3 6.08
 -4 -7 4 193.34 5.39
 4 -7 -4 190 6.1
 -4 -7 -4 199.75 6.01
 4 7 4 193.56 5.66
 -4 -7 -4 213.14 5.98
 4 -7 4 211.12 6.4
 -4 7 4 191.04 5.67
 -4 -7 4 190.79 6.4
 4 7 4 183.55 5.35
 -4 7 4 181.04 5.28
 4 7 4 216.47 5.81
 -4 7 -5 1151.41 15.22
 4 7 -5 1231.33 17.33
 -4 -7 -5 1242.58 15.49
 4 -7 -5 1268.33 16.26
 -4 7 5 1205.26 14.15
 4 -7 -5 1310.35 17.2
 4 -7 5 1243.43 15.66
 -4 -7 5 1130.23 14.54
 4 7 5 1196.86 14.21
 -4 -7 -5 1283.94 15.83
 4 -7 -5 1227.83 16.3
 -4 -7 -5 1328.19 14.86
 -4 7 5 1239.11 14.84
 4 -7 5 1212.14 15.59
 4 -7 5 1278.1 15.24
 -4 7 5 1195.26 14.78
 4 7 -5 1271.24 16.25
 -4 7 -5 1276.24 15.06
 -4 -7 5 1297.7 17.7
 -4 -7 5 1219.38 14.41
 4 -7 6 1.34 0.59
 -4 7 -6 0.99 0.45
 4 7 -6 0.87 0.47
 4 -7 6 0.73 0.44
 -4 -7 6 0.92 0.43
 4 7 6 0.82 0.41
 4 -7 -6 0.9 0.58
 -4 7 6 1.23 0.52
 4 -7 -6 1.02 0.5
 -4 7 -6 1.23 0.54
 -4 -7 -6 1.17 0.5
 4 7 6 1.18 0.48
 -4 7 7 11.84 1.51
 -4 7 -7 12.3 1.53
 4 7 7 12.87 1.5
 -4 7 -7 10.77 1.63
 -4 -7 7 12.52 1.56
 4 -7 -7 12.52 1.68
 -4 -7 -7 12.79 1.67
 4 7 -7 11.97 1.68
 4 -7 -7 14.18 1.98
 -4 8 0 649.64 9.99
 4 -8 0 661.01 11.01
 4 8 0 632.32 10.29
 -4 8 0 632.7 8.97
 4 -8 0 632.48 10.59
 4 -8 0 653.33 8.84
 -4 -8 0 679.6 10.48
 4 8 0 680.01 9.23
 4 -8 0 640.69 10.89
 -4 -8 0 601 9.18
 4 8 0 655.65 9.93
 -4 8 0 697.03 10.21
 -4 -8 -1 190.28 4.75
 4 -8 -1 182.47 5.79
 4 8 1 188.96 5.52
 4 -8 1 174.54 5.42
 -4 -8 1 185.49 4.13
 -4 8 -1 188.13 5.46
 -4 -8 -1 188.78 5.84
 4 -8 -1 189.88 5.7
 -4 8 1 185.44 4.56
 4 8 1 196.09 5.77
 4 8 -1 172.63 5.43
 -4 -8 -1 180.49 5.26
 4 -8 -1 204.88 5.19
 4 -8 1 193.27 5.01
 -4 -8 1 181.44 5.54
 -4 8 1 188.7 5.43
 -4 8 -1 174.07 5
 -4 8 -1 181.73 5.07
 4 8 -1 158.85 4.05
 -4 -8 1 196.09 4.98
 4 -8 1 185.6 5.67
 4 8 -1 185.65 5.11
 -4 8 -2 543.45 9.04
 4 -8 -2 543.19 10.08
 -4 -8 -2 513.42 9.49
 4 -8 -2 511.82 9.7
 -4 -8 -2 550.27 8.88
 4 -8 2 535.07 9.59
 -4 -8 2 551.15 7.56
 -4 8 2 593.56 9.37
 -4 8 -2 542.66 9.58
 4 8 2 572.45 9.41
 4 8 2 547.02 9.23
 4 8 -2 547.93 8.43
 4 8 2 523.28 8.94
 -4 8 2 562.51 8.05
 -4 -8 2 553.77 8.56
 4 -8 -2 526.64 9.05
 4 8 -2 539.47 9.89
 -4 8 -2 542.49 9.28
 -4 -8 3 0.96 0.41
 4 -8 3 0.93 0.43
 -4 -8 3 1.17 0.42
 4 -8 -3 1.51 0.59
 -4 -8 -3 2.99 0.73
 -4 8 -3 0.9 0.43
 4 8 -3 1.18 0.5
 4 8 3 0.82 0.38
 -4 8 -3 2.45 0.66
 4 -8 3 0.92 0.42
 4 -8 -3 0.67 0.37
 -4 -8 -3 1.03 0.45
 -4 -8 3 0.87 0.44
 -4 8 3 1.1 0.46
 4 8 -3 2.27 0.53
 4 8 3 1.26 0.48
 4 8 -3 0.79 0.46
 -4 8 3 1.7 0.55
 4 8 3 1.26 0.46
 -4 8 -3 0.76 0.37
 -4 -8 4 1.18 0.46
 4 8 4 0.76 0.39
 4 -8 4 1.02 0.47
 -4 8 4 0.98 0.45
 -4 8 -4 1.23 0.47
 4 8 4 1.49 0.52
 4 -8 4 1.93 0.68
 -4 -8 4 0.86 0.42
 4 -8 -4 0.87 0.45
 -4 -8 -4 0.67 0.4
 4 8 -4 0.95 0.5
 -4 8 -4 0.54 0.33
 4 8 4 1.54 0.52
 4 8 -4 0.94 0.46
 4 -8 4 3.85 0.9
 4 -8 -4 3.12 0.88
 4 -8 -4 1.99 0.67
 -4 -8 -4 0.73 0.39
 4 8 4 0.87 0.4
 -4 8 4 0.9 0.41
 -4 8 -4 0.84 0.43
 -4 -8 -4 0.87 0.42
 4 8 -4 1.08 0.55
 -4 8 -5 2.1 0.62
 -4 8 5 1.46 0.55
 -4 -8 -5 1.58 0.56
 4 8 -5 1.41 0.63
 4 -8 -5 1.98 0.66
 4 -8 5 2.16 0.66
 -4 8 5 1.78 0.64
 -4 -8 5 1.26 0.51
 4 8 5 1.74 0.6
 4 -8 5 2.13 0.71
 4 -8 -5 1.42 0.63
 4 8 5 2.19 0.62
 4 8 -5 1.4 0.6
 -4 -8 -5 2.46 0.69
 4 8 5 1.94 0.6
 -4 8 -5 2.3 0.67
 -4 8 -5 1.96 0.62
 4 8 -5 1.59 0.61
 -4 8 -5 2.35 0.74
 4 -8 5 2 0.7
 4 -8 -5 1.72 0.67
 -4 -8 5 1.08 0.58
 -4 -8 -5 1.91 0.65
 4 -8 5 1.36 0.57
 -4 8 5 2.36 0.68
 -4 -8 6 410.93 8.74
 4 -8 -6 434.12 10.13
 4 -8 6 427.44 9.33
 -4 8 -6 393.89 8.61
 4 8 6 409.41 8.45
 -4 -8 6 386.55 9.93
 -4 8 -6 408.95 8.77
 4 8 -6 453.83 10.08
 4 8 6 430.1 8.4
 -4 8 -6 377.81 9.33
 4 8 -6 388.68 10.12
 -4 -8 -6 447.74 9.52
 4 -8 -6 392.49 9.65
 -4 8 6 386.97 9.04
 4 -8 6 426.39 9.12
 4 -8 -6 400.06 9.72
 -4 -8 -6 398.37 8.53
 -4 8 7 2.01 0.7
 4 -8 7 0.25 0.31
 -4 8 -7 0.36 0.29
 4 8 -7 0.53 0.39
 4 8 7 0.52 0.34
 -4 8 7 0.38 0.33
 4 -8 -7 1.25 0.57
 -4 -8 -7 0.35 0.31
 4 8 -7 0.6 0.44
 -4 -8 7 0.26 0.37
 -4 -8 -7 2.23 0.69
 4 -9 0 0.45 0.34
 -4 -9 0 0.53 0.34
 -4 -9 0 0.74 0.33
 -4 9 0 2 0.54
 -4 9 0 0.55 0.33
 4 9 0 0.51 0.3
 4 9 0 0.78 0.37
 4 9 0 0.72 0.39
 4 -9 0 1.32 0.52
 4 -9 0 0.62 0.31
 -4 -9 0 0.48 0.32
 4 -9 -1 217.04 6.43
 -4 -9 -1 222.18 5.59
 4 -9 -1 208.4 6.43
 -4 9 -1 220.1 5.86
 4 9 1 207.94 5.94
 -4 9 -1 219.23 6.21
 -4 9 1 202.85 5.84
 -4 -9 -1 221.03 6.15
 -4 -9 1 205.27 6.02
 4 9 -1 203.84 6.15
 4 9 1 233.14 6.56
 -4 9 1 209.16 5.29
 4 9 -1 227.35 5.93
 4 9 1 215.09 5.73
 -4 -9 1 203.03 4.66
 4 -9 1 208.91 6.33
 -4 -9 1 216.17 5.62
 4 9 -1 203.26 4.9
 -4 9 1 210.34 5.81
 -4 9 -1 218.39 5.86
 -4 -9 2 2.92 0.67
 -4 9 -2 0.27 0.24
 4 9 2 0.28 0.24
 -4 -9 -2 0.49 0.35
 4 -9 -2 0.23 0.26
 4 -9 2 0.18 0.2
 -4 9 -2 3.58 0.82
 4 9 2 0.32 0.27
 4 9 -2 0.04 0.18
 -4 9 2 0.97 0.37
 -4 9 -2 1.06 0.45
 4 9 -2 0.31 0.32
 -4 9 2 0.06 0.2
 -4 -9 2 0.03 0.21
 4 -9 2 -0.03 0.17
 4 -9 -2 0.1 0.2
 -4 -9 -2 0.1 0.21
 -4 -9 -2 0.42 0.3
 4 -9 -2 0.04 0.16
 -4 -9 2 0.16 0.2
 4 -9 2 -0.03 0.19
 4 9 -3 1204.37 15.89
 -4 9 -3 1183.05 14.66
 4 -9 -3 1297.54 15.98
 -4 -9 3 1241.14 14.04
 4 -9 3 1226.37 15.23
 4 -9 -3 1291.29 16.35
 -4 -9 -3 1165.32 14.78
 -4 -9 -3 1307.64 15.77
 4 -9 -3 1280.48 16.68
 4 -9 3 1235.76 15.49
 -4 9 3 1182.2 14.39
 4 9 -3 1279.31 17.78
 -4 9 -3 1180.4 14.79
 4 9 3 1209.47 14.12
 4 9 3 1300.16 14.94
 4 -9 3 1117.94 14.29
 4 9 3 1154.68 14.15
 -4 -9 3 1243.12 15.95
 -4 -9 -3 1203.51 14.87
 -4 9 -3 1203.65 14.19
 -4 9 3 1166.41 14.28
 4 -9 4 2.24 0.69
 4 -9 -4 0.91 0.51
 4 9 4 0.98 0.42
 4 9 4 1.19 0.48
 -4 9 4 1.03 0.47
 4 9 4 2.13 0.58
 -4 -9 4 0.79 0.4
 4 -9 4 1.3 0.51
 -4 9 -4 1.69 0.58
 4 9 -4 1.16 0.55
 -4 -9 -4 1.43 0.53
 4 -9 4 1.81 0.63
 4 -9 -4 1.03 0.55
 -4 -9 -4 1.1 0.52
 -4 -9 4 0.87 0.5
 -4 9 4 1.32 0.51
 4 9 4 0.68 0.39
 -4 9 -4 1.23 0.49
 4 -9 -4 1.16 0.54
 4 -9 -5 499.17 10.55
 -4 -9 -5 458.76 9.54
 -4 -9 -5 469.25 9.35
 4 -9 -5 502.99 10.77
 4 9 -5 480.64 11.16
 -4 9 -5 476.72 9.7
 4 9 5 449.23 9.07
 -4 -9 5 526.75 11.35
 -4 9 -5 477.17 9.59
 4 9 -5 526.92 10.82
 4 9 5 453.57 8.63
 -4 9 -5 503.12 9.74
 -4 -9 -5 499.51 9.97
 4 -9 -5 513.33 10.92
 -4 9 5 460.7 9.14
 4 -9 5 494.87 9.92
 -4 -9 5 491.17 9.37
 4 -9 -6 1.42 0.63
 4 -9 6 1.65 0.63
 -4 -9 -6 1.68 0.64
 -4 -9 6 0.79 0.5
 -4 9 -6 1.45 0.56
 -4 9 6 1.6 0.58
 4 9 6 1.31 0.49
 4 -9 6 1.6 0.61
 -4 -9 6 1.2 0.51
 -4 9 6 1.12 0.55
 -4 9 -6 1.58 0.6
 4 9 -6 2.31 0.75
 4 9 6 1.03 0.44
 -4 9 -6 1.44 0.63
 4 9 -6 1.24 0.67
 4 -9 -6 1.55 0.61
 -4 -9 -6 2.35 0.71
 -4 9 -7 14.07 1.7
 4 -9 -7 17.57 2.02
 -4 -9 -7 15.6 1.81
 4 9 7 15.76 1.61
 4 -9 -7 13.8 1.86
 4 -9 7 14.82 1.77
 4 9 -7 16.61 1.98
 4 -9 7 17.03 1.83
 -4 -9 7 16.26 1.79
 -4 9 7 15.68 1.74
 -4 9 7 14.93 1.88
 4 -10 0 358.45 7.59
 -4 -10 0 344.77 7.87
 4 10 0 321.44 7.85
 -4 10 0 328.45 7.93
 -4 10 0 343.66 7.69
 4 -10 0 327.15 8.07
 -4 -10 0 331.26 7.48
 4 -10 0 325.82 8.3
 4 -10 0 294.27 7.94
 4 10 0 315.16 6.96
 -4 10 0 323.73 7.17
 4 10 0 304.87 7.37
 4 10 -1 172.57 5.72
 -4 10 1 176.55 5.07
 4 10 1 179.07 6.1
 -4 10 -1 169.99 5.74
 -4 10 1 165.91 5.57
 -4 10 -1 170.24 5.41
 -4 10 1 156.79 5.23
 -4 10 -1 178.86 5.51
 -4 -10 1 170.69 5.62
 -4 -10 -1 162.59 5.42
 4 -10 -1 175.09 5.34
 4 -10 1 163.07 5.1
 4 -10 1 180.71 6.03
 -4 -10 1 169.62 5.25
 4 10 1 180.02 5.72
 4 -10 -1 180.26 6.05
 -4 -10 -1 188.67 6.31
 4 10 1 183.7 5.54
 4 -10 -1 177.03 6.03
 4 10 -1 178 5.5
 4 10 2 827.93 12.21
 4 10 2 829.77 12
 4 10 -2 814.29 13.01
 -4 10 -2 815.93 12.62
 -4 10 -2 803.4 12.07
 -4 10 2 747.24 11.53
 -4 10 -2 783.56 11.58
 4 -10 2 821.68 12.09
 4 -10 -2 798.04 12.29
 -4 -10 -2 849.13 12.64
 -4 -10 2 812.92 12.78
 -4 -10 -2 829.56 12.93
 4 -10 -2 879.69 13.75
 4 10 2 845.73 12.19
 4 10 -2 877.95 12.11
 4 -10 -2 899.01 13.59
 -4 -10 2 824.33 11.79
 4 -10 2 809.98 12.97
 -4 10 2 845.84 12.46
 4 -10 -3 9.67 1.5
 4 10 3 10.17 1.32
 -4 10 3 9.96 1.36
 4 10 -3 10.25 1.65
 -4 10 -3 11.54 1.51
 4 -10 -3 10.82 1.55
 -4 -10 -3 9.65 1.37
 -4 -10 3 9.1 1.42
 4 -10 3 9.63 1.37
 -4 10 -3 10.44 1.37
 4 -10 3 10.85 1.5
 -4 -10 3 10.35 1.36
 -4 10 -3 10.86 1.48
 4 10 -3 9.99 1.47
 4 10 3 11.26 1.4
 4 10 3 10.54 1.43
 4 10 4 0.17 0.2
 -4 10 4 0.17 0.21
 4 -10 -4 0.58 0.4
 -4 -10 -4 0.08 0.25
 4 -10 4 0.15 0.27
 -4 10 4 0.73 0.41
 -4 10 -4 0.2 0.25
 4 10 4 0.52 0.34
 4 10 -4 0.21 0.25
 -4 10 -4 0.41 0.31
 4 10 4 0.23 0.24
 -4 -10 4 0.03 0.22
 4 -10 4 0.39 0.33
 4 -10 4 0.31 0.33
 4 -10 -4 0.04 0.26
 -4 -10 -4 0.11 0.21
 4 10 -4 0.5 0.42
 -4 10 -4 0.38 0.36
 4 -10 -4 0.13 0.26
 -4 -10 -4 -0.04 0.21
 -4 10 5 1.65 0.59
 -4 -10 -5 1.74 0.63
 4 -10 -5 1.55 0.63
 4 -10 5 2.02 0.69
 4 -10 5 2.22 0.74
 4 -10 -5 1.63 0.67
 4 10 5 4.99 0.91
 -4 10 -5 2.1 0.65
 4 10 -5 1.79 0.67
 -4 10 5 1.22 0.53
 4 -10 5 1.85 0.71
 -4 -10 5 1.76 0.7
 -4 -10 -5 1.87 0.62
 4 10 -5 1.33 0.63
 -4 10 -5 2.15 0.67
 -4 -10 -5 3.3 0.85
 -4 -10 5 4.32 0.91
 4 -10 6 260.77 7.47
 -4 10 6 207.66 6.32
 -4 10 -6 248.57 7.03
 -4 -10 6 234.26 7.93
 -4 10 6 244.06 6.82
 4 10 6 235.47 6.37
 -4 -10 -6 251.55 7.16
 4 -10 -6 253.98 7.64
 -4 10 -6 241.83 6.98
 -4 -10 6 244.66 6.8
 4 -10 6 240.39 7.03
 4 10 -6 211.18 7.49
 4 -10 -6 261.91 8.06
 4 10 6 232.24 6.28
 -4 -10 7 1.02 0.48
 4 11 0 4.51 0.93
 -4 11 0 3.82 0.86
 -4 11 0 3.77 0.82
 4 -11 0 3.29 0.88
 -4 -11 0 4.19 0.93
 -4 11 0 3.14 0.82
 4 -11 0 3.62 0.89
 4 11 0 4.47 0.89
 4 -11 0 3.23 0.76
 4 11 -1 215.15 6.34
 -4 11 -1 198.89 6.03
 -4 11 -1 214.43 6.24
 4 -11 1 207.81 6.63
 4 -11 1 210.52 6.76
 -4 -11 1 215.85 6.34
 4 -11 -1 209.56 6.7
 4 -11 -1 206.99 6.84
 4 11 -1 209.8 6.44
 4 11 1 214.38 6.66
 -4 11 1 204.32 6.38
 -4 11 -1 210.4 6.61
 -4 -11 -1 221.5 6.51
 -4 -11 1 202.24 6.27
 4 -11 1 196.62 5.95
 4 -11 -1 207.15 6.19
 -4 -11 -2 20.29 2.09
 4 -11 -2 18.43 2.05
 4 -11 -2 18.26 1.99
 -4 -11 2 20.07 1.94
 4 -11 2 19.34 2.07
 4 -11 2 21.46 2.1
 -4 11 -2 22.61 2.18
 4 11 -2 20.44 2.09
 -4 11 2 19.7 1.99
 -4 11 -2 18.54 1.9
 4 11 2 21.52 1.99
 -4 11 2 19.59 2.02
 4 11 2 21.94 2.06
 4 -11 2 20.17 2.04
 -4 -11 2 19.51 2.02
 -4 -11 -2 19.26 1.97
 -4 11 2 18.49 1.9
 -4 11 -2 19.59 1.9
 4 -11 3 378.99 9.19
 -4 -11 3 384.12 8.37
 4 -11 -3 350.52 8.96
 -4 -11 -3 362.81 8.77
 4 -11 -3 383.9 9.46
 4 -11 3 374.31 8.8
 -4 11 -3 359.03 8.66
 4 11 3 369.13 8.35
 4 11 3 348.42 8.2
 4 -11 -3 379.24 9.19
 4 11 -3 369.27 8.97
 -4 11 -3 362.93 8.48
 -4 11 -3 352.48 7.98
 -4 11 3 367.19 8.3
 4 11 3 340.09 7.58
 4 11 -3 365.92 9.63
 4 -11 3 369.32 8.74
 -4 -11 -3 372.11 8.69
 -4 -11 3 383.35 9.19
 4 -11 -4 2.02 0.75
 -4 -11 -4 1.44 0.59
 -4 -11 4 1.43 0.64
 4 -11 4 1.56 0.63
 -4 11 4 1.43 0.55
 4 11 4 1.64 0.58
 4 11 4 1.43 0.54
 -4 11 4 1.89 0.62
 4 11 -4 1.68 0.71
 -4 11 -4 2.26 0.71
 4 11 -4 1.31 0.6
 4 11 4 1.47 0.53
 4 -11 -4 2.11 0.71
 4 -11 4 1.47 0.6
 -4 -11 4 2.27 0.68
 4 -11 -5 232.3 7.44
 4 -11 5 230.76 7.02
 -4 11 5 202.5 6.25
 4 11 -5 181.03 7.11
 -4 11 -5 219.88 6.68
 4 11 5 208.51 5.98
 -4 11 -5 216.04 6.64
 4 11 -5 227.69 7.3
 -4 -11 -5 203.13 6.51
 4 -11 -5 226.99 7.36
 -4 11 5 215.14 6.4
 -4 -11 5 204.62 6.25
 -4 -11 -5 226.96 6.87
 4 11 5 210.25 6.3
 4 -11 6 0.98 0.5
 4 -11 -6 1.78 0.73
 -4 -11 -6 1.51 0.59
 -4 -11 6 1.5 0.67
 4 -11 -6 1.68 0.65
 -4 -11 -6 1.75 0.62
 4 11 -6 1.49 0.64
 -4 11 -6 1.47 0.58
 -4 11 6 1.27 0.56
 4 11 6 1.45 0.53
 4 11 6 1.15 0.47
 -4 -11 6 1.43 0.58
 -4 11 -6 2.82 0.77
 -4 12 0 1128.91 14.83
 4 -12 0 1189.63 16.93
 4 12 0 1235.88 15.85
 -4 12 0 1130.14 14.29
 4 -12 0 1219.28 16.59
 -4 -12 0 1215 16.04
 4 12 0 1122.87 15.53
 4 12 1 0.56 0.38
 4 12 -1 0.19 0.25
 4 -12 1 0.51 0.42
 4 -12 -1 0.39 0.39
 -4 -12 1 -0.08 0.28
 -4 -12 -1 0.19 0.25
 -4 12 1 0.24 0.33
 -4 12 -1 0.21 0.29
 4 -12 1 0.35 0.37
 -4 -12 -1 0.09 0.21
 4 -12 -1 0.26 0.32
 -4 12 -1 -0.04 0.19
 4 12 1 0.5 0.37
 4 12 -1 0.23 0.31
 -4 12 -1 0.51 0.37
 -4 12 1 0.37 0.29
 4 12 1 0.62 0.38
 4 -12 -2 266.62 7.86
 -4 12 -2 258.41 7.23
 -4 12 2 267.62 7.43
 -4 12 2 287.37 7.51
 -4 12 -2 275.36 7.24
 4 12 2 254.52 7.05
 4 -12 2 272.26 7.89
 -4 -12 2 274.86 7.37
 4 -12 2 269.51 7.61
 4 12 2 268.45 7.08
 4 12 -2 268.04 7.67
 -4 -12 2 259.19 7.41
 -4 -12 -2 273.36 7.62
 4 -12 -2 257.89 7.8
 -4 -12 -2 255.33 7.74
 -4 12 3 0.67 0.4
 4 12 3 0.56 0.35
 -4 -12 3 1.3 0.57
 -4 -12 -3 1.09 0.52
 -4 12 -3 0.22 0.23
 -4 12 3 0.22 0.26
 4 12 3 0.37 0.3
 -4 -12 -3 0.25 0.35
 4 -12 3 0.47 0.4
 -4 -12 3 0.5 0.38
 4 12 -3 0.43 0.35
 -4 12 -3 0.39 0.33
 4 12 3 0.44 0.34
 4 -12 3 0.7 0.45
 -4 12 -3 0.33 0.33
 4 12 4 0.07 0.19
 -4 12 4 0.04 0.2
 -4 -12 4 0.04 0.22
 -4 -12 -4 0.2 0.24
 -4 12 4 0.11 0.2
 4 12 4 0.04 0.14
 4 -12 -4 -0.05 0.15
 -4 -12 -4 0.33 0.29
 4 -12 4 0.04 0.26
 4 12 -4 0.04 0.17
 4 12 4 0.03 0.17
 -4 12 -4 0.28 0.32
 4 -12 -4 0.14 0.28
 4 -12 4 -0.04 0.16
 4 12 -4 0.05 0.25
 -4 12 -4 0.12 0.24
 -4 12 5 0.39 0.38
 4 12 5 0.74 0.39
 -4 -12 5 0.58 0.43
 -4 -12 -5 0.37 0.38
 4 12 -5 0.63 0.46
 -4 12 -5 0.91 0.48
 4 12 -5 0.7 0.49
 -4 12 -5 0.32 0.28
 4 -12 5 0.61 0.4
 4 -12 5 1.01 0.54
 4 -12 -5 0.46 0.48
 4 -12 -5 0.51 0.39
 -4 -12 -5 0.76 0.43
 4 12 5 0.79 0.42
 -4 12 5 0.51 0.35
 4 13 0 0.2 0.23
 4 -13 0 0.09 0.27
 -4 13 0 0.67 0.46
 4 -13 0 0.19 0.35
 -4 13 0 0.07 0.17
 -4 -13 0 -0.04 0.27
 -4 -13 0 0.23 0.31
 4 -13 -1 150.6 6.01
 4 -13 1 149.48 5.84
 4 -13 1 144.35 5.88
 -4 -13 -1 141.04 5.5
 -4 -13 1 140.66 5.47
 -4 -13 -1 136.62 5.9
 4 -13 1 122.52 5.51
 4 -13 -1 115.82 5.36
 -4 13 1 150.02 5.93
 -4 13 -1 150.61 5.82
 4 13 -1 135.86 5.37
 -4 13 -1 139.22 5.29
 -4 13 -1 134.41 5.26
 4 13 1 145.64 5.44
 4 -13 2 2.02 0.72
 4 -13 2 2.16 0.74
 4 -13 -2 1.9 0.73
 -4 13 2 1.92 0.64
 4 13 2 1.96 0.66
 -4 -13 2 1.24 0.56
 -4 -13 -2 2.48 0.76
 -4 13 2 1.89 0.65
 -4 -13 -2 1.99 0.73
 4 13 2 2.8 0.76
 -4 13 -2 2.04 0.72
 -4 13 -2 2.57 0.72
 4 13 -2 1.54 0.61
 4 13 2 1.83 0.61
 -4 13 -2 1.9 0.68
 4 -13 -3 256.42 7.97
 4 13 3 246.67 7.11
 4 -13 3 246.98 7.42
 4 13 -3 247.1 7.66
 4 13 3 229.9 6.4
 -4 13 -3 246.92 7.44
 -4 -13 -3 257.76 7.53
 -4 -13 3 254.78 7.59
 -4 13 -3 248.43 7.31
 -4 13 3 245.73 6.93
 4 -13 3 256.74 7.86
 4 -13 -3 245.89 7.75
 -4 13 3 223.69 6.77
 4 13 3 231.83 6.75
 -4 -13 -4 28.98 2.55
 4 -13 -4 31.17 2.84
 4 -13 4 32.26 2.77
 4 -13 -4 32.24 2.82
 -4 13 -4 30.89 2.59
 4 13 -4 29.94 2.67
 -4 13 -4 29.74 2.57
 -4 13 4 27.8 2.44
 4 13 4 28.99 2.31
 -4 13 4 30.74 2.45
 -4 -13 -4 27.9 2.48
 4 13 -4 26.05 2.72
 -4 -13 4 31.9 2.78
 4 13 4 28.31 2.27
 4 -13 5 307.36 8.24
 -4 13 5 281.16 7.29
 -4 14 0 142.4 5.79
 -4 14 0 133.14 5.3
 4 -14 0 137.11 5.91
 4 -14 0 133.3 5.79
 -4 -14 0 130.58 5.86
 -4 -14 0 148.47 5.84
 4 14 0 137.18 5.42
 4 -14 0 142.08 5.91
 -4 -14 -1 3.95 1.06
 4 -14 1 4.08 1.05
 4 -14 -1 3.52 0.94
 -4 14 -1 4.43 1.06
 -4 -14 -1 5.1 1.06
 -4 -14 1 3.88 0.96
 4 14 -1 4.18 0.97
 4 14 1 4.23 0.99
 4 14 1 5.16 1.08
 4 -14 1 4.12 1.05
 -4 14 1 5.31 1.06
 -4 14 -1 5.57 1.09
 4 -14 -1 3.74 1
 4 -14 1 3.34 0.92
 4 14 2 274.94 7.5
 -4 14 -2 264.19 7.59
 4 -14 2 273.93 8.21
 4 -14 -2 225.22 7.53
 -4 -14 -2 280.15 8.08
 -4 -14 -2 288.45 8.1
 -4 -14 2 266.29 7.51
 4 -14 2 273.84 8.05
 4 14 2 237.36 6.74
 4 14 -2 274.39 7.84
 4 -14 -2 287.14 8.65
 -4 14 2 253.36 7.29
 4 14 -3 0.53 0.42
 4 14 3 0.21 0.26
 -4 14 3 0.93 0.48
 4 14 3 0.58 0.36
 -4 14 -3 0.87 0.51
 -4 -14 -3 0.94 0.51
 -4 -14 3 0.34 0.35
 4 -14 -3 0.28 0.35
 -4 14 3 0.52 0.38
 4 -14 3 0.35 0.42
 4 -14 -3 0.28 0.37
 4 -14 3 0.73 0.49
 -4 14 -4 0.13 0.28
 4 14 4 0.22 0.26
 4 -14 -4 0.83 0.47
 4 -14 -4 -0.05 0.42
 4 -14 4 0.09 0.33
 -4 -15 0 0.23 0.3
 -4 -15 0 0.48 0.42
 -4 15 0 0.33 0.32
 4 15 0 0.29 0.3
 -4 15 1 32.54 2.68
 -4 15 -1 31 2.76
 -4 -15 -1 33.57 2.97
 4 -15 -1 29.16 2.82
 4 15 1 29.86 2.49
 -4 15 1 34.71 2.73
 4 -15 1 35.58 3.01
 4 -15 -1 31.62 2.78
 4 15 1 33.7 2.76
 -4 -15 1 34.93 2.93
 4 15 2 0.22 0.26
 4 15 2 0.39 0.33
 4 -15 -2 0.52 0.42
 -4 15 -2 0.41 0.38
 4 -15 2 0.23 0.34
 4 -15 -2 0.19 0.39
 -4 15 2 0.19 0.31
 -4 15 -3 435.77 9.94
 4 -15 3 449.05 10.55
 -4 16 0 62.95 4.24
 5 0 0 0.09 0.11
 -5 0 0 0.39 0.2
 5 0 0 0.44 0.21
 -5 0 0 0.09 0.07
 5 0 -1 1449.69 10.42
 5 0 -1 1451.77 9.13
 5 0 1 1444.45 9.64
 -5 0 1 1346.19 9.27
 -5 0 1 1465.7 9.29
 -5 0 -1 1340.34 8.7
 5 0 -1 1470.79 9.52
 -5 0 1 1481.49 8.35
 -5 0 -1 1438.45 6.2
 5 0 1 1457.51 12
 5 0 -1 1345.25 9.48
 -5 0 -1 1526.11 11.79
 5 0 1 1536.21 7.82
 -5 0 2 2500.8 9.8
 -5 0 -2 2617.04 12.98
 5 0 2 2591.21 15.5
 -5 0 -2 2536.91 15.18
 -5 0 2 2562.64 12.46
 5 0 2 2462.33 12.32
 5 0 2 2640.75 16.89
 5 0 -2 2506.35 16.42
 5 0 -2 2482.76 15.79
 -5 0 -2 2378.26 16.52
 5 0 -2 2494.5 11.54
 5 0 -3 45.13 2.5
 -5 0 3 43.24 2.52
 5 0 3 46.91 2.42
 -5 0 -3 39.08 2.25
 5 0 3 44.67 2.01
 -5 0 3 43.99 1.37
 -5 0 3 43 1.81
 5 0 3 45.41 2.4
 -5 0 3 42.28 1
 -5 0 -3 48 2.38
 5 0 -3 45.53 2.53
 5 0 -3 44.58 1.72
 -5 0 4 1361.33 11.73
 5 0 4 1414.16 15.14
 5 0 4 1501.91 14.87
 5 0 -4 1543.37 11.69
 5 0 4 1407.27 14.39
 -5 0 4 1452.1 8.25
 5 0 -4 1342.95 15.29
 -5 0 -4 1391.15 15.3
 -5 0 -4 1549.62 14.57
 -5 0 -4 1451.15 14.16
 -5 0 4 1418.12 15.6
 5 0 4 1450.79 13.21
 -5 0 -5 370.46 7.79
 5 0 5 369.64 7.62
 5 0 -5 362.22 6.46
 -5 0 -5 363.43 8.21
 -5 0 -5 346.25 7.04
 -5 0 5 346.81 6.56
 5 0 5 354.1 7.78
 5 0 5 354.24 7
 -5 0 -6 191.61 6.27
 5 0 6 196.04 6.03
 5 0 6 206.99 6.08
 -5 0 -6 219.33 6.19
 5 0 -6 188.31 6.4
 -5 0 -6 212.2 6.41
 -5 0 -6 208.84 5.64
 5 0 6 203.99 5.97
 5 0 6 200.93 5.59
 -5 0 6 195.89 6.29
 -5 0 -7 43.42 3.08
 5 0 -7 38.39 2.97
 -5 0 -7 47.71 3.11
 -5 0 7 43.75 3.02
 5 0 7 43.63 2.72
 -5 0 -7 50.46 2.98
 -5 0 -7 44.29 2.67
 5 0 7 45.78 2.98
 5 0 7 47.02 2.95
 5 0 7 46.1 3.06
 -5 0 8 7.49 1.26
 5 0 8 6.1 1.05
 -5 0 -8 6.13 1.16
 5 0 -8 6.44 1.22
 5 0 8 7.71 1.22
 -5 0 -8 8.8 1.23
 -5 -1 0 0.13 0.07
 -5 1 0 0.07 0.11
 -5 -1 0 0.22 0.17
 -5 -1 0 0.06 0.09
 5 1 0 0.19 0.15
 5 1 0 0.33 0.12
 5 -1 0 0.16 0.14
 5 -1 0 0.08 0.14
 5 1 0 0.14 0.11
 -5 -1 1 1247.57 8.57
 5 -1 1 1034.78 7.95
 5 1 1 1159.38 5.25
 5 1 -1 1022.47 8.74
 5 -1 -1 1078.16 8.09
 -5 -1 -1 1008.16 6.63
 5 1 -1 1087.94 7.88
 -5 -1 1 1119.14 8.82
 5 1 1 1113.39 7.82
 5 -1 1 1063.29 9
 -5 -1 1 980.63 8.61
 -5 -1 -1 1073.67 10.5
 -5 1 -1 982.65 6.85
 5 1 -1 1011.48 7.67
 5 -1 -1 1043.48 8.67
 5 -1 1 1116.17 10.49
 5 1 -1 1040.22 9.51
 -5 1 -1 1055.51 9.93
 -5 1 1 973.9 7.22
 -5 -1 -1 1043.26 8.22
 5 1 1 1066.58 9.76
 -5 -1 1 1073.37 7.14
 -5 1 -2 303.97 4.36
 5 -1 -2 280.88 5.42
 -5 -1 -2 290.43 4.6
 -5 -1 2 303.86 5.66
 5 1 2 301.1 4.01
 5 -1 -2 292.98 5.71
 5 1 -2 271.75 5.01
 -5 1 2 279.74 5.55
 5 -1 2 315.01 5.66
 5 1 2 288.71 5.06
 5 1 2 304.56 5.98
 -5 1 -2 290.63 5.06
 5 -1 2 295.2 5.73
 5 1 -2 279.46 3.15
 -5 1 2 289.69 4.7
 -5 -1 2 291.68 3.59
 5 -1 2 285.16 4.57
 5 1 2 298.58 5.54
 5 1 -2 301.02 4.66
 5 -1 -2 268.35 2.95
 -5 -1 -2 301.25 5.64
 -5 1 2 294.47 2.58
 -5 1 -2 309.58 5.91
 5 1 3 752.93 9.68
 5 -1 3 752.3 9.83
 -5 -1 -3 754.83 9.21
 5 -1 -3 755.04 10.31
 -5 -1 -3 728.14 9.68
 -5 1 -3 733.06 10.03
 5 -1 -3 735.23 5.88
 5 1 -3 738.38 8.07
 -5 -1 3 716.31 6.68
 -5 1 3 736.01 8.29
 5 -1 3 743.8 8.37
 5 1 3 747.17 7.9
 -5 -1 3 759.3 10.23
 5 -1 3 777.22 10.04
 5 1 -3 714.67 10.16
 5 -1 -3 723.01 10.18
 5 1 4 1024.66 10.74
 -5 -1 4 1003.61 12.95
 5 -1 -4 862.14 12.98
 5 1 -4 1027.28 10.57
 5 -1 -4 1084.12 8.92
 5 1 4 1020.72 12.09
 5 -1 4 1028.14 12.57
 -5 -1 -4 1031.41 12.71
 5 1 4 1052.84 12.65
 -5 -1 4 976.7 9.18
 5 1 4 1135.33 12.4
 -5 1 -4 991.69 11.92
 5 1 -4 971.12 13
 -5 -1 -4 1001.68 11.55
 -5 1 -4 995.15 11.43
 -5 1 4 915.16 13
 5 -1 -4 967.21 12.91
 -5 -1 -4 1040.87 11.9
 -5 1 4 936.8 8.46
 -5 1 4 1034.27 10.84
 -5 1 -5 105.45 4.25
 -5 -1 -5 94.06 4.31
 -5 1 -5 104.35 4.5
 -5 1 5 94.45 3.57
 5 1 5 102.31 4.12
 -5 -1 5 90.77 3.19
 -5 -1 -5 94.7 3.71
 5 1 -5 102.51 3.71
 5 -1 -5 98.59 3.18
 -5 1 5 95.96 4.3
 5 1 5 93.89 3.54
 5 -1 5 94.89 3.67
 5 -1 5 103.76 4.15
 5 1 5 99.71 4.02
 5 -1 5 107.1 4.32
 -5 -1 -5 104.45 4.12
 5 1 5 98.07 3.86
 -5 1 -5 105.87 4.22
 -5 1 -6 305.66 6.95
 -5 -1 -6 329.22 7.2
 5 -1 6 324.95 7.65
 -5 1 -6 284.94 7.84
 -5 -1 -6 336.26 8.43
 -5 -1 6 320.76 7.99
 5 1 6 310.38 6.85
 -5 1 6 290.35 7.64
 5 -1 6 293.18 6.8
 5 -1 -6 292.66 8.1
 -5 1 -6 323.7 7.87
 5 1 6 312.07 7.42
 5 -1 6 298.4 7.54
 5 1 6 289.18 7.14
 -5 -1 -6 300.86 7.43
 5 1 7 131.23 4.92
 5 -1 7 137.53 5.23
 -5 -1 -7 134.59 5.53
 5 1 7 144.12 5.16
 -5 -1 -7 148.67 4.92
 -5 1 -7 129.94 4.61
 5 1 7 150.03 5.3
 5 -1 -7 138.21 5.57
 -5 1 -7 132.19 5.19
 -5 -1 -7 133.19 5.18
 -5 -1 -7 161.29 5.36
 -5 1 -7 147.61 5.08
 5 1 7 136.7 4.71
 -5 1 7 131.85 5.27
 -5 -1 7 127.99 5.13
 5 -1 7 134.04 4.75
 5 1 8 6.65 1.15
 -5 -1 -8 8.07 1.2
 5 1 8 6.18 1.03
 -5 1 8 5.7 1.13
 -5 -1 8 5.41 1.06
 5 -1 8 6.16 1.05
 5 1 -8 5.16 1.1
 5 -1 -8 5.37 1.14
 -5 -1 -8 5.31 1.07
 5 -2 0 0.51 0.23
 -5 -2 0 0.16 0.08
 -5 -2 0 0.05 0.12
 5 2 0 1.38 0.17
 -5 2 0 0.05 0.09
 5 -2 0 0.97 0.18
 5 -2 0 0.02 0.11
 5 2 0 1.24 0.31
 5 2 -1 685.49 7.75
 -5 2 1 595.61 4.84
 5 2 1 646.18 8.22
 -5 -2 1 699.1 7.3
 5 -2 1 632.48 7.12
 5 -2 1 568.85 4.57
 5 2 -1 635.83 7.29
 5 -2 -1 641.2 6.7
 -5 -2 -1 660.68 6.2
 5 -2 -1 694.83 8.17
 5 -2 1 644.44 7.57
 5 2 1 642.12 5.31
 5 2 -1 625.84 5.81
 5 2 1 656.63 7.73
 -5 2 1 671.3 7.46
 -5 -2 1 629.41 5.54
 -5 -2 -1 632.83 6.96
 -5 -2 -1 668.22 8.2
 -5 2 -1 672.11 7.93
 -5 2 1 598.32 5.65
 5 -2 1 695.07 8.65
 -5 -2 2 1044.64 10.82
 5 -2 2 1089.08 9.8
 5 2 -2 1150.47 11.72
 -5 2 -2 1153.12 8.7
 -5 -2 -2 1120.05 9.71
 -5 -2 2 1139.73 10.16
 5 2 2 1129.91 7.56
 5 -2 -2 1139.93 11.74
 -5 2 2 1168.57 4.88
 5 -2 2 1094.64 10.96
 5 2 2 1121.14 9.69
 -5 -2 -2 1189.89 11.01
 5 2 2 1094.38 11.25
 -5 2 -2 1140.62 11.4
 5 2 -2 1077.92 9.95
 -5 2 2 1126.72 10.07
 -5 -2 2 1000.41 5.16
 5 2 2 1181.21 11.2
 -5 -2 -2 1261.13 11.9
 5 -2 2 1093.32 11.36
 -5 -2 3 89.27 3.36
 5 -2 -3 83.76 3.56
 -5 2 3 81.46 3.39
 -5 2 -3 88.61 3.28
 5 -2 3 86.04 3.41
 -5 2 3 82.3 2.96
 5 2 -3 89.7 3.7
 5 2 -3 87.2 3.01
 5 2 3 83.83 3.19
 -5 -2 -3 84.48 3.1
 5 -2 -3 85.79 3.49
 -5 -2 -3 90.01 3.49
 5 -2 3 90.24 3.1
 5 -2 4 583.71 8.74
 5 2 4 618.72 8.36
 -5 -2 4 603.33 9.67
 5 -2 4 645.55 9.89
 -5 -2 -4 655.08 10.22
 -5 2 4 599.9 10.96
 -5 2 4 625 8.96
 5 -2 4 627.7 9.94
 5 2 -4 621.24 8.74
 5 -2 -4 652.9 6.02
 -5 2 -4 638.18 9.51
 -5 -2 4 531 5.97
 5 2 4 660.14 9.79
 -5 -2 -4 651.21 9.75
 5 -2 -4 609.46 10.3
 -5 2 -4 624.62 9.69
 -5 2 -4 650.8 9.36
 -5 -2 -4 614.15 9.09
 5 2 -4 490.41 7.5
 5 2 4 634.69 9.38
 5 -2 5 115.75 4.55
 -5 2 5 115.61 4.09
 5 2 5 123.18 4.45
 -5 -2 -5 105.41 4.17
 5 2 5 108.05 3.81
 5 -2 5 101.74 3.88
 -5 2 -5 106.72 4.04
 -5 2 5 106.36 3.28
 -5 2 -5 115.13 4.38
 -5 2 -5 114.62 4.46
 -5 2 5 96.19 4.38
 5 -2 5 110.8 4.33
 -5 2 6 362.54 7.8
 -5 2 -6 358.85 8.32
 5 2 6 370.18 7.47
 -5 -2 6 383.38 8.55
 5 -2 6 376.06 7.81
 -5 -2 -6 411.41 7.97
 -5 2 -6 365.67 7.62
 5 2 6 399.44 7.98
 -5 -2 -6 407.52 9.11
 5 -2 -6 352.98 8.75
 -5 -2 -6 389.96 8.51
 -5 2 -6 375.82 7.97
 5 -2 6 395.84 8.58
 5 -2 -7 186.11 6.65
 -5 -2 -7 184.05 6.05
 5 2 7 213 6.05
 -5 -2 -7 191.21 5.51
 -5 2 -7 192.06 5.56
 -5 2 -7 190.96 6.22
 -5 -2 -7 198.5 6.55
 5 2 7 199.44 5.66
 -5 -2 7 197.25 6.4
 5 -2 7 194.28 5.77
 5 2 7 199.45 6.03
 -5 2 8 0.12 0.27
 5 -2 8 0.23 0.25
 -5 -2 8 0.33 0.31
 5 -2 8 0.29 0.28
 -5 -2 -8 0.41 0.4
 -5 -2 -8 0.56 0.35
 -5 2 -8 0.13 0.18
 5 -2 -8 0.13 0.27
 -5 -2 -8 0.35 0.31
 5 2 -8 0.17 0.26
 5 -3 0 0.1 0.17
 5 3 0 0.08 0.12
 5 -3 0 0.5 0.18
 -5 3 0 -0.01 0.09
 5 -3 0 1.19 0.39
 5 3 0 0.06 0.09
 -5 3 0 0.35 0.2
 -5 3 0 1.5 0.32
 5 3 0 0.78 0.3
 5 -3 0 0.65 0.28
 5 3 1 3160.08 17.86
 5 3 -1 2959.09 13.25
 -5 3 -1 3113.03 17.31
 5 -3 -1 3259.16 16.03
 -5 -3 -1 3037.92 15.76
 5 -3 -1 3034.67 18.27
 -5 -3 1 2854.29 8.5
 -5 3 1 3091.78 13.34
 5 -3 1 3001.59 17.65
 5 3 1 3058.99 11.01
 5 3 1 2865.82 16.51
 5 3 -1 3050.7 17.56
 5 3 1 3035.23 18.39
 -5 -3 -1 3124.16 16.57
 5 -3 1 2896.65 18.91
 -5 -3 -1 3199.3 19.18
 -5 3 1 3259.47 17.4
 -5 -3 1 3180.8 12.29
 -5 3 1 2860.85 8.94
 -5 3 -2 1133.22 9.28
 5 3 -2 1123.11 12.13
 5 -3 -2 1050.5 10.91
 -5 -3 -2 1098.24 10.29
 5 -3 -2 1085.75 11.98
 -5 3 -2 1147.58 11.32
 5 -3 2 1106.54 11.51
 5 3 2 1129.8 11.48
 5 3 -2 1024.19 5.95
 5 3 2 1113.73 11.71
 -5 -3 -2 1127.48 11.11
 5 -3 -2 1009.1 9.9
 -5 3 2 1048.53 6.12
 -5 3 -2 1063.79 11.54
 5 3 2 1191 11.66
 5 3 -2 1082.79 10.81
 -5 -3 2 1124.47 9.57
 5 3 2 1053.17 7.68
 5 -3 2 1064.41 11.64
 -5 -3 -2 1135.94 11.66
 5 -3 2 986.34 10.2
 5 3 -3 200.66 5.04
 -5 3 -3 197.93 5.28
 5 3 -3 205.04 5.81
 -5 3 -3 193.06 4.65
 5 -3 -3 195.94 5.48
 -5 -3 -3 210.78 5.12
 -5 -3 3 184.63 4.59
 5 -3 -3 191.72 5.71
 5 -3 3 199.81 5.39
 5 -3 -3 174.76 5.09
 5 3 3 212.49 5.38
 5 -3 3 195.89 5.31
 -5 3 3 197.75 4.81
 5 -3 3 194.82 4.75
 -5 3 -3 205 5.07
 5 3 3 188.81 4.86
 -5 -3 -3 202.14 5.25
 5 3 -4 181.05 5.91
 -5 3 -4 186.74 5.28
 -5 -3 -4 199.35 5.43
 5 -3 -4 191.83 5.89
 5 3 4 195.77 4.77
 5 -3 4 200.05 5.24
 -5 -3 4 184.31 5.19
 5 -3 -4 191.75 6.12
 5 3 -4 195.19 5.17
 -5 3 4 175.11 5.65
 5 -3 4 207.39 5.82
 5 -3 4 193.59 5.52
 5 3 4 195.95 5.45
 -5 -3 -4 202.03 5.36
 5 3 4 199.18 5.32
 -5 3 -4 185.56 5.14
 5 -3 -4 199.62 2.9
 5 3 -4 197.31 5.31
 -5 3 4 185.37 4.46
 -5 3 -4 198.59 5.46
 -5 -3 -5 58.45 3.19
 5 -3 -5 48.31 3.04
 5 3 5 51.01 2.67
 5 -3 -5 51.45 3.32
 -5 3 5 42.93 3
 -5 3 5 51.46 2.84
 5 -3 5 50.1 3
 5 3 5 54.37 2.94
 -5 3 -5 53.4 2.94
 5 -3 -5 50.8 3.33
 5 -3 5 52.05 3
 -5 3 -5 51.08 2.8
 5 3 -5 52.37 3.36
 -5 3 -5 52.34 3.02
 -5 3 5 50.56 2.54
 5 3 5 50.68 2.73
 5 3 -5 51.95 2.9
 5 -3 6 150.59 5.38
 5 -3 6 154.07 5.33
 5 3 6 160.54 5.19
 5 3 -6 157.76 5.35
 5 3 6 161.2 5.1
 -5 -3 6 158.34 5.41
 5 -3 6 156.08 5
 5 3 6 149.93 4.79
 5 3 -6 144.93 5.75
 -5 3 -6 149.64 5.5
 -5 -3 -6 164.7 5.6
 -5 3 6 145.97 5.56
 -5 3 -6 154.44 5.13
 -5 3 -6 144.4 4.79
 -5 -3 -6 154.58 4.94
 5 3 7 283.77 6.91
 5 3 7 282.39 7.03
 5 -3 7 254.07 7.19
 5 3 -7 256.69 7.81
 -5 3 -7 277.34 7.73
 -5 3 -7 267.45 6.59
 -5 -3 -7 279.87 6.87
 -5 3 7 254.19 7.27
 -5 -3 7 271.03 7.38
 5 3 7 269.91 6.67
 5 -3 7 261.46 6.69
 -5 3 -7 271.26 6.8
 -5 -3 -7 277.38 7.47
 5 -3 -8 0.26 0.29
 -5 -3 -8 0.5 0.37
 5 3 -8 0.69 0.45
 -5 -3 -8 0.36 0.4
 -5 3 8 0.34 0.37
 -5 -3 8 0.15 0.28
 5 -3 8 0.18 0.27
 5 3 8 0.34 0.28
 -5 3 -8 0.4 0.3
 -5 3 -8 0.16 0.23
 -5 -3 -8 0.4 0.3
 5 -4 0 0.09 0.13
 5 -4 0 0.02 0.16
 5 -4 0 0.34 0.22
 -5 4 0 0.04 0.11
 -5 -4 0 0.17 0.17
 5 4 0 0.05 0.18
 -5 4 0 0.06 0.1
 -5 4 0 0.03 0.13
 5 4 0 0.07 0.1
 5 -4 0 -0.02 0.13
 -5 -4 -1 2143.49 14.52
 -5 -4 1 2144.05 15.39
 5 4 1 2106.95 15.98
 5 4 -1 2090.03 15.95
 -5 4 1 2047.43 8.71
 -5 4 -1 2079.6 13.92
 5 -4 1 2138.56 17.23
 5 -4 -1 2090.6 11.16
 5 4 1 2006.36 14.54
 -5 4 1 2085.41 12.29
 5 -4 -1 1939.73 13.79
 -5 -4 -1 2195.09 14.52
 5 -4 -1 2075.95 16.39
 5 -4 1 2128.09 15.83
 5 4 -1 2043.34 12.15
 5 4 1 2188.32 15.34
 -5 4 -1 2208.76 14.93
 5 -4 1 2030.51 15.39
 -5 -4 1 2068.87 10.61
 -5 4 1 2199.61 15.54
 5 -4 1 2172.21 11
 -5 4 -1 2200.42 15.61
 -5 -4 -2 1515.33 13.4
 -5 4 -2 1555.5 11.96
 5 4 -2 1499.66 14.52
 5 -4 -2 1445.75 13.46
 -5 -4 -2 1462.37 12.64
 5 -4 -2 1510.48 14.77
 5 4 2 1458.63 10.14
 5 -4 2 1526.73 14.11
 -5 4 2 1436.41 8.77
 -5 -4 2 1358.82 9.32
 5 -4 -2 1353.64 11.35
 -5 -4 2 1537.47 14.22
 5 4 2 1532.44 13.94
 -5 4 -2 1459.11 13.02
 5 4 2 1425.9 12.98
 5 4 -2 1456.72 13.6
 -5 4 2 1568.73 13.69
 5 -4 2 1484.76 14.71
 -5 4 -3 23.76 1.81
 -5 4 -3 26.52 1.8
 -5 -4 -3 26.55 1.92
 5 -4 -3 24.48 1.94
 5 4 3 23.2 1.51
 -5 -4 3 23.75 1.67
 5 -4 -3 25.21 2.08
 5 -4 3 24.34 1.92
 5 4 3 23.44 1.84
 -5 -4 3 25.42 2.07
 -5 -4 -3 25.44 1.9
 5 -4 -3 25.08 1.91
 5 -4 3 24.84 1.95
 5 4 3 24.46 1.8
 -5 -4 -3 26.43 1.92
 5 -4 3 24.74 1.83
 -5 4 -3 24.02 1.77
 5 4 -3 24.44 1.86
 -5 4 4 195.72 5.36
 5 4 -4 206.95 5.68
 -5 4 -4 196.77 5.45
 -5 4 -4 198.03 5.49
 5 4 -4 201.8 6.34
 -5 -4 -4 205.49 5.69
 5 -4 -4 201.4 6.13
 -5 -4 4 184.69 5.11
 5 4 4 192.95 4.82
 5 -4 -4 194.28 6.11
 -5 4 4 173.83 5.34
 5 -4 4 213.44 6.04
 5 4 4 214.34 5.71
 5 4 4 193.53 5.36
 -5 -4 -4 216.14 5.99
 5 4 -4 168.73 5.18
 5 -4 4 194.96 5.66
 -5 -4 -4 201.18 5.57
 -5 4 4 195.67 4.89
 5 -4 4 189.96 5.32
 -5 4 -4 182.81 5.08
 5 4 -5 101.7 4.78
 -5 4 -5 103.45 4.36
 5 -4 -5 108.25 4.67
 -5 -4 5 105.15 4.17
 5 4 5 102.81 3.81
 5 -4 -5 105.3 4.76
 -5 4 5 91.05 4.35
 5 4 5 105.91 4.02
 5 -4 5 109.91 4.48
 5 -4 -5 96.27 4.67
 -5 -4 -5 111.79 4.61
 5 4 5 104.34 4.07
 5 4 -5 107.15 4.33
 -5 4 -5 104.02 4.1
 -5 4 -5 103.28 3.94
 -5 -4 -5 102.77 3.92
 5 4 -5 98.21 3.99
 -5 4 5 108.96 4.22
 5 -4 5 108.11 4.16
 -5 4 6 204.42 6.65
 5 4 -6 216.33 6.48
 5 4 6 222.75 5.87
 5 -4 6 202.37 5.83
 -5 -4 -6 200.61 6.3
 5 -4 -6 195.66 6.41
 -5 4 -6 198.72 5.62
 -5 -4 -6 210.57 5.78
 -5 4 -6 215.84 6.01
 -5 4 -6 205.74 6.51
 5 4 -6 209.23 6.96
 -5 -4 -6 237.65 6.84
 5 -4 -6 201.76 7.12
 -5 4 6 214.68 6.17
 5 4 6 213.52 6.05
 5 -4 6 209.7 6.4
 5 -4 6 219.65 6.47
 5 -4 -7 196.5 6.63
 -5 -4 -7 213.91 6.56
 -5 4 7 183.17 6.24
 5 4 7 207.83 5.9
 -5 4 -7 185.37 5.6
 -5 -4 -7 233.01 6.27
 5 -4 7 205.11 6.35
 -5 4 -7 195.9 5.84
 5 4 7 203.05 5.87
 5 4 -7 179.58 6.58
 -5 4 -7 202.86 6.72
 5 -4 8 2.11 0.67
 -5 -4 -8 2.79 0.85
 -5 4 -8 1.57 0.56
 -5 4 -8 2.52 0.69
 5 -4 8 2.11 0.65
 -5 -4 -8 1.93 0.64
 5 4 -8 1.7 0.66
 -5 4 8 1.35 0.59
 -5 -4 8 2.31 0.71
 5 4 8 2.7 0.7
 5 -4 -8 2.42 0.74
 5 -5 0 0.66 0.32
 -5 -5 0 0.24 0.15
 5 -5 0 0.53 0.19
 -5 -5 0 0.02 0.15
 5 -5 0 0.13 0.21
 5 5 0 0.5 0.23
 5 -5 0 0.56 0.26
 5 5 0 0.02 0.1
 -5 5 0 0.06 0.12
 -5 5 0 0.15 0.15
 -5 -5 1 1400.41 9.83
 5 -5 1 1280.81 13.03
 5 -5 -1 1216.01 9.68
 -5 -5 -1 1303.29 12.72
 5 -5 -1 1434.77 12.97
 5 -5 -1 1349.19 13.81
 5 -5 1 1322.85 13.24
 -5 -5 1 1319.07 5.76
 5 5 -1 1415.39 13.7
 -5 5 -1 1442.19 12.88
 -5 5 1 1305.49 12.51
 5 5 1 1359.95 12.18
 5 5 -1 1187.88 7.65
 -5 5 -1 1419.86 12.06
 -5 5 1 1338.05 8.47
 -5 5 -1 1283.54 12.72
 5 -5 1 1437.48 9.93
 -5 -5 -1 1359.2 12.52
 -5 -5 1 1338.01 12.87
 5 5 1 1377.17 12.52
 -5 5 -2 93.05 3.44
 -5 5 -2 97.8 3.44
 -5 -5 -2 97.66 3.69
 5 -5 -2 87.62 3.51
 -5 -5 -2 101.18 3.58
 5 -5 -2 91.91 3.82
 5 5 2 86.07 2.61
 5 -5 2 96.45 3.7
 -5 -5 2 83.38 2.32
 -5 5 2 95.35 2.69
 5 5 2 97.17 3.66
 -5 5 2 93.1 3.47
 -5 -5 2 91.84 2.89
 -5 -5 -2 92.27 3.51
 5 -5 2 97.92 3.94
 5 5 2 92.56 3.63
 -5 5 2 70.05 1.53
 5 5 -2 85.89 2.38
 5 5 2 92.11 3.39
 5 5 3 441.37 7.9
 -5 5 3 461.09 8.02
 5 5 3 485.99 8.22
 5 5 -3 466.69 8.62
 -5 5 -3 411.84 7.75
 -5 5 -3 429.44 7.93
 5 5 -3 452.81 9.14
 -5 -5 -3 437.16 7.95
 5 -5 -3 465.63 8.8
 -5 -5 3 442.2 7.25
 5 -5 -3 440.18 8.83
 5 5 3 444.75 7
 5 -5 3 480.86 8.79
 -5 -5 3 407.95 6.8
 5 -5 -3 446.03 7.98
 -5 -5 -3 457.96 8.21
 5 5 3 448.56 8.06
 5 5 -3 432.3 8.45
 5 -5 3 468.53 8.87
 -5 -5 -3 405.34 7.87
 5 -5 3 425.44 7.71
 -5 5 -3 430.53 7.59
 -5 -5 3 471.57 9.03
 -5 5 4 241.32 6.11
 5 5 -4 250.94 6.6
 -5 5 -4 240.18 6.09
 -5 5 -4 237.27 6.19
 5 -5 -4 242.93 6.72
 -5 -5 -4 270.16 6.72
 5 5 4 241.71 5.59
 -5 -5 4 237.12 5.86
 5 -5 -4 252 7.12
 5 5 -4 222.24 6.62
 5 -5 4 248.25 6.69
 -5 -5 4 235.46 5.77
 5 5 4 241.18 6.32
 5 -5 -4 226.92 6.75
 -5 5 -4 238.77 5.9
 -5 5 4 227.74 5.68
 5 -5 4 239.34 6.17
 -5 -5 -4 227.29 6.01
 5 5 4 254.78 6.13
 5 -5 4 251 6.69
 -5 -5 -5 41.11 2.59
 -5 5 -5 39.78 2.57
 -5 5 -5 42.04 2.79
 5 5 -5 40.54 3.08
 5 -5 -5 43.02 2.98
 -5 -5 -5 39.74 2.69
 5 5 5 40.6 2.42
 -5 -5 5 42.31 2.66
 5 -5 -5 41.47 3.07
 -5 5 5 37.21 2.81
 5 5 -5 36.73 2.66
 5 -5 5 42.48 2.87
 -5 -5 5 37.65 2.59
 -5 -5 -5 45.39 2.93
 5 -5 -5 43.69 3.14
 5 5 5 39.85 2.54
 -5 5 -5 37.32 2.41
 -5 5 5 39.04 2.59
 -5 5 5 40.42 2.46
 5 -5 5 41.11 2.63
 5 5 5 42.97 2.65
 5 -5 5 41.01 2.74
 -5 5 -6 372.29 8.76
 5 5 -6 368.71 9.38
 5 5 6 348.09 7.51
 -5 -5 6 392.41 8.5
 5 -5 -6 377.75 9.28
 -5 5 6 328.57 8.75
 -5 -5 -6 369.05 7.72
 -5 5 -6 347.8 7.62
 5 -5 6 367.19 8.56
 -5 -5 6 351.89 8.55
 -5 -5 -6 349.52 8.31
 5 -5 -6 367.6 9.54
 5 5 6 363.13 7.77
 -5 5 6 372.67 8.27
 5 -5 -6 359.54 8.82
 5 -5 6 380.59 8.23
 5 5 -6 390.12 8.87
 5 5 6 385 7.76
 -5 5 -6 373.73 8.05
 5 -5 6 359.1 8.43
 5 5 7 262.37 6.71
 -5 5 -7 236.45 6.43
 5 -5 7 239.64 6.6
 5 -5 -7 227.57 7.92
 -5 -5 -7 255.63 7.38
 -5 5 7 213.27 6.85
 5 -5 -7 231.71 7.15
 -5 5 -7 253.58 6.82
 5 5 -7 237.63 7.69
 5 5 7 244.78 6.33
 5 -5 7 242.8 6.97
 5 -5 8 7.97 1.3
 5 5 8 6.84 1.09
 -5 5 8 6.03 1.16
 -5 -5 8 8.32 1.29
 5 -5 -8 8.49 1.39
 -5 -5 -8 6.93 1.23
 -5 5 -8 6.9 1.13
 5 5 -8 6.88 1.3
 5 -5 8 7.44 1.2
 5 -6 0 0.06 0.16
 5 -6 0 0.23 0.16
 -5 -6 0 0.07 0.15
 5 6 0 0.11 0.18
 -5 6 0 0.02 0.1
 -5 6 0 0.1 0.13
 5 -6 0 0.09 0.15
 5 6 0 0.23 0.19
 5 -6 0 0.06 0.18
 -5 -6 0 0.01 0.1
 -5 6 0 0.22 0.2
 5 -6 -1 909.75 11.21
 -5 -6 -1 879.67 11.36
 5 -6 -1 876.43 11.77
 -5 6 1 889.61 9.71
 5 -6 1 838.38 11.11
 -5 -6 1 840.39 5.86
 5 6 1 874.33 10.35
 5 -6 1 806.05 11.01
 -5 6 1 763.25 10.13
 5 6 1 948.55 11.85
 5 6 -1 833.72 11.19
 -5 -6 -1 922.15 10.86
 5 -6 1 879.46 8.76
 5 -6 -1 828.49 8.93
 -5 -6 1 841.14 10.83
 -5 6 -1 887.56 10.06
 -5 6 1 837.01 7.85
 -5 6 -1 876.36 10.75
 5 6 -1 928.15 9.84
 -5 6 -2 996.02 11.48
 5 -6 2 1057.71 14.03
 -5 -6 2 1045.68 10.27
 5 -6 2 983.19 11.91
 5 -6 -2 1043.67 12.7
 -5 -6 -2 1019.98 12.01
 5 -6 -2 880.53 11.99
 -5 -6 2 1020.34 8.46
 5 -6 2 1004.77 12.59
 -5 6 -2 983.01 11.45
 5 6 2 961.21 11.63
 -5 6 2 878.63 7.2
 5 6 -2 1023.36 12.9
 5 6 2 1079.03 12.42
 -5 6 2 962.41 11.63
 5 6 2 1008.82 11.78
 5 6 -2 1014 9.56
 5 -6 2 991.47 10.64
 -5 -6 2 895.64 11.82
 5 -6 -2 1027.08 11.34
 -5 6 -2 987.21 11.9
 -5 -6 -2 1036.79 12.15
 5 6 -3 0.43 0.34
 -5 -6 -3 0.96 0.4
 5 -6 -3 0.64 0.36
 5 6 3 0.51 0.29
 5 -6 3 0.37 0.28
 -5 -6 3 0.85 0.43
 -5 6 3 0.48 0.3
 -5 -6 3 0.33 0.24
 5 -6 3 0.55 0.34
 5 -6 -3 0.71 0.41
 5 6 -3 1.29 0.53
 -5 6 -3 0.43 0.29
 -5 -6 -3 0.45 0.32
 5 6 -3 0.52 0.33
 5 6 3 1.45 0.47
 5 6 3 0.51 0.3
 5 -6 3 0.46 0.33
 5 6 -3 0.6 0.22
 -5 -6 -3 2.26 0.6
 5 6 -4 542.83 10.13
 -5 6 -4 516.22 9.17
 -5 6 -4 485.48 9.17
 5 6 -4 522.04 10.69
 -5 -6 -4 523.1 9.44
 -5 -6 4 512.33 8.64
 5 -6 -4 529.54 10.57
 5 -6 4 550.63 10.04
 -5 -6 4 508.82 8.68
 5 6 4 568.32 9.46
 5 -6 -4 492.9 9.74
 -5 -6 -4 598.82 10.16
 -5 -6 -4 618.7 10.01
 -5 6 4 517.45 9.19
 -5 6 4 503.75 8.78
 5 -6 4 490.46 9.03
 5 -6 4 495.74 9.62
 5 6 -4 469.12 10.18
 -5 6 -4 518.89 9.11
 -5 -6 4 535.99 10.61
 5 6 4 502.21 8.76
 -5 -6 -5 126.61 4.68
 -5 -6 -5 104.26 4.44
 5 -6 -5 106.9 4.8
 5 6 5 104.05 3.98
 -5 -6 5 106.82 4.24
 -5 -6 5 108.26 4.43
 5 6 -5 99.51 4.64
 5 -6 5 105.97 4.47
 -5 6 5 113.33 4.47
 5 6 -5 116.3 4.79
 5 -6 5 109.86 4.36
 -5 6 5 106.51 4.12
 -5 -6 5 100.56 4.82
 -5 6 -6 200.47 6.52
 5 6 -6 202.93 7.15
 -5 -6 6 214 6.29
 5 -6 -6 213.63 7.14
 5 -6 6 198.65 6.42
 -5 6 -6 195.7 5.89
 5 -6 6 202.22 6.52
 -5 6 -6 206.05 6.08
 5 6 6 202.79 5.84
 -5 6 6 197.15 6.09
 -5 -6 -6 204.18 5.81
 -5 -6 6 209.09 7.1
 -5 6 6 193.56 6.64
 5 6 6 226.25 6.02
 5 -6 -6 205.45 6.9
 -5 -6 -6 219.3 6.63
 5 -6 6 203.97 6.08
 -5 -6 -6 218.73 6.7
 5 -6 -6 201.16 7.02
 5 -6 7 91.63 4.34
 -5 6 -7 82.13 3.77
 5 6 -7 87.19 4.6
 -5 -6 -7 89.26 4.36
 5 -6 -7 87.86 4.47
 -5 6 -7 83.2 3.93
 5 -6 7 86.68 4.04
 -5 6 7 82.32 4.25
 -5 -6 -7 95.06 4.44
 5 6 7 94.73 3.95
 5 6 7 85.09 3.8
 -5 -6 7 94.21 4.29
 -5 -6 -8 3.31 0.85
 -5 6 -8 4.12 0.87
 -5 -6 8 3.62 0.87
 5 6 8 4.04 0.83
 5 -7 0 0.13 0.2
 -5 -7 0 0.47 0.21
 -5 -7 0 0.06 0.14
 -5 7 0 0.4 0.26
 5 7 0 0.2 0.18
 5 -7 0 0.21 0.22
 5 7 0 0.03 0.11
 5 -7 0 0.07 0.21
 5 7 0 0.06 0.15
 -5 7 0 0.06 0.14
 -5 -7 -1 774.41 11.36
 5 -7 -1 765.45 11.19
 -5 -7 -1 802.23 8.54
 5 -7 -1 802.44 11.79
 5 7 -1 804.79 9.96
 5 7 1 793.21 10.5
 -5 -7 1 760.6 6.56
 5 -7 1 773.16 11.17
 5 7 -1 750.62 8.29
 5 7 1 835.93 10.54
 -5 7 -1 767.56 10.57
 -5 7 1 729.05 10.52
 -5 7 -1 780.03 10.1
 5 7 -1 753.5 11.16
 5 7 1 790.61 11.16
 -5 -7 1 800.28 9.09
 5 -7 1 743.59 11.07
 -5 7 1 755.17 9.81
 -5 7 -1 772.46 10.44
 -5 -7 -1 774.26 10.51
 -5 -7 1 711.23 10.96
 5 -7 -1 740.39 9.31
 5 -7 1 807.48 9.13
 5 -7 2 589.05 9.92
 -5 -7 2 611.11 8.38
 -5 7 -2 620.51 9.42
 5 -7 -2 624.15 10.23
 -5 -7 -2 539.85 9.3
 5 -7 -2 541.13 9.36
 5 7 2 597.82 9.32
 5 7 -2 633.01 8.42
 5 -7 2 595.58 10.04
 -5 -7 2 626.43 6.96
 5 7 2 636 9.65
 5 -7 -2 605.09 9.29
 -5 7 2 607.57 8.42
 -5 7 -2 575.97 9.27
 -5 7 -2 612.28 9.4
 5 -7 2 592.49 8.64
 5 7 -2 581.72 10.17
 -5 7 2 583.08 6.99
 5 7 2 585.03 9.48
 -5 -7 2 574.23 9.79
 -5 -7 -2 607.04 9.65
 -5 7 2 587.59 9.48
 5 -7 2 529.19 10.59
 5 -7 3 183.96 5.58
 -5 -7 3 180.37 4.92
 -5 7 -3 188.45 5.45
 5 7 -3 153.29 5.77
 5 -7 -3 175.68 5.69
 -5 -7 -3 165.11 5.26
 5 -7 -3 166.85 5.87
 5 7 3 168.58 4.48
 5 7 3 194.72 5.42
 -5 -7 3 167.19 4.32
 5 -7 3 179.63 5.71
 5 7 3 164.14 5.17
 5 -7 -3 194 5.84
 -5 7 -3 172.47 5.21
 5 -7 3 172.51 5.94
 -5 7 3 164.04 5.24
 -5 -7 3 179.89 5.81
 5 7 3 162.46 4.9
 5 7 -3 171.54 4.03
 -5 -7 -3 174.99 5.46
 -5 7 -3 172.13 5.25
 -5 7 -4 574.05 10
 5 7 -4 623.69 11.19
 -5 7 -4 548.81 10.64
 5 7 -4 583.38 11.72
 -5 -7 -4 608.97 10.48
 5 -7 -4 611.04 11.1
 -5 -7 4 621.62 9.7
 5 -7 -4 618.77 11.49
 5 7 4 575.21 9.68
 5 -7 4 577.49 10.05
 5 -7 4 646.27 11.15
 5 7 4 638.71 10.27
 -5 -7 -4 583.64 10.16
 5 -7 -4 572.37 10.6
 -5 7 -4 533.25 9.23
 5 7 -4 586.02 12.24
 5 -7 4 657.9 11.43
 5 7 4 563.54 9.31
 -5 7 4 588.64 9.98
 -5 -7 -4 628.37 10.32
 5 7 4 665.15 10.32
 -5 -7 4 630.9 11.65
 -5 -7 -5 80.68 3.97
 -5 -7 5 76.12 3.57
 5 -7 -5 77.25 4.14
 -5 7 5 70.94 3.67
 -5 7 5 77.12 3.59
 5 -7 5 82.5 4.04
 5 7 5 73.77 3.53
 -5 -7 -5 72.89 3.74
 5 -7 -5 70.01 4.03
 -5 7 -5 76.11 3.55
 5 7 5 73.55 3.45
 5 -7 5 83.47 4.09
 -5 7 -5 75.16 3.63
 5 7 -5 82.01 4.14
 -5 7 -5 74.26 3.81
 5 7 -5 73.4 4.21
 -5 -7 5 76.91 4.24
 -5 -7 -5 74.91 3.58
 5 -7 -6 87.34 4.54
 5 -7 6 90.5 4.3
 -5 -7 -6 89.83 4.26
 5 -7 -6 76.82 4.35
 5 7 6 89.05 3.97
 -5 -7 6 86.27 3.96
 -5 7 -6 81.87 3.85
 5 7 -6 88.67 4.44
 -5 -7 -6 89.66 3.99
 -5 -7 -6 86.03 4.2
 5 -7 -6 83.53 4.33
 -5 7 6 81.51 4.25
 -5 -7 6 86.85 4.64
 5 7 -6 82.48 4.58
 -5 7 -6 80.17 4.15
 -5 7 6 85.57 3.97
 -5 7 7 58.17 3.64
 -5 -7 -7 62.63 3.56
 5 -7 7 71.85 3.88
 5 7 7 59.36 3.13
 -5 7 7 61.68 3.44
 -5 7 -7 64.19 3.42
 5 7 7 66.12 3.25
 -5 7 -7 61.88 3.36
 5 -7 7 62.07 3.41
 -5 -7 -7 61.69 3.64
 -5 -7 7 58.13 3.81
 -5 -7 7 66.95 3.58
 5 7 -7 65.69 4.05
 5 -8 0 0.09 0.15
 -5 -8 0 0.09 0.18
 5 -8 0 -0.03 0.21
 -5 -8 0 0.05 0.14
 5 8 0 0.32 0.23
 -5 8 0 0.23 0.23
 5 -8 0 0.07 0.18
 -5 -8 0 0.02 0.14
 5 8 0 0.23 0.2
 -5 8 0 0.37 0.27
 5 8 0 0.03 0.13
 -5 -8 -1 201.94 6.09
 5 -8 -1 210.51 6.04
 5 -8 1 190.77 5.81
 -5 -8 1 200.41 3.87
 -5 8 -1 189.66 5.34
 5 -8 -1 197.69 6.13
 -5 -8 -1 211.56 4.74
 5 8 1 196.53 5.47
 5 8 -1 219.91 5.64
 -5 -8 1 209.76 5.04
 5 -8 1 190.71 5.92
 -5 8 1 224.78 6.01
 5 8 1 196.53 5.77
 5 8 -1 191.89 5.81
 -5 8 1 201.13 4.62
 -5 8 -1 198.97 5.3
 -5 8 -1 213.39 5.85
 -5 -8 -1 199.94 5.62
 5 -8 1 211.82 5.1
 -5 -8 1 201.3 5.87
 5 -8 -1 209.05 5.2
 5 -8 -2 545.84 10.25
 -5 -8 -2 496.17 9.41
 -5 -8 -2 590.34 9.02
 5 -8 -2 511.05 9.39
 -5 8 -2 534.26 9.1
 5 -8 2 561.57 10.01
 5 8 2 543.37 9.4
 -5 8 -2 526.18 9.31
 -5 8 2 578.58 8.89
 5 8 -2 605.73 9.1
 5 8 2 558.28 9.42
 5 8 -2 533.03 10.18
 5 -8 2 553.44 10.03
 5 -8 -2 577 9.73
 -5 8 -2 558.53 9.4
 -5 8 2 515.39 9.12
 -5 -8 2 551.98 9.98
 -5 -8 -2 564.96 9.7
 5 -8 2 557.04 8.96
 -5 8 -3 108.94 4.2
 -5 8 3 96.59 3.99
 -5 -8 -3 96.57 4.21
 5 -8 -3 103.84 4.64
 5 -8 3 105.37 4.46
 5 8 3 103.01 4.13
 5 8 3 102.22 3.99
 -5 8 -3 97.73 4.12
 5 8 3 97.6 3.57
 -5 8 -3 99.49 4.15
 -5 8 3 101.12 4.2
 5 -8 3 101.52 4.27
 -5 -8 3 106.1 3.94
 -5 -8 -3 101.33 4.27
 -5 -8 3 100.02 4.44
 5 -8 3 101.44 4.22
 5 -8 -3 111.26 4.62
 5 -8 4 671.49 12.03
 5 -8 -4 708.4 12.34
 5 8 -4 601.2 12.74
 -5 -8 -4 611.37 10.75
 5 -8 -4 647.41 11.74
 -5 8 -4 689.54 11.11
 5 8 4 662.59 10.63
 5 8 4 691.11 10.46
 -5 8 4 643.64 10.47
 -5 8 4 649.76 10.67
 5 -8 4 629.93 11.05
 -5 -8 4 690.8 10.51
 -5 -8 -4 742.45 11.69
 -5 8 -4 649.09 10.81
 5 8 -4 690.61 12.1
 5 -8 5 108.06 4.56
 -5 -8 5 117.49 4.55
 -5 8 -5 100.86 4.66
 5 8 -5 110.65 5.32
 -5 -8 -5 111.8 4.68
 5 -8 -5 106.75 4.85
 -5 8 -5 104.99 4.36
 5 -8 -5 108.78 4.98
 -5 8 5 111.01 4.67
 -5 8 5 101.61 4.24
 5 -8 5 112.87 4.92
 5 8 5 104.18 4.26
 5 -8 -5 102.61 4.83
 -5 -8 -5 112.07 4.66
 5 8 -5 84.1 4.7
 -5 8 -5 102.73 4.32
 5 -8 5 108.37 4.96
 -5 8 5 105.16 4.46
 -5 8 -5 108.86 4.49
 5 8 -5 116.02 5.06
 -5 -8 -5 110.83 4.45
 5 8 5 106.51 4.17
 5 -8 5 99.69 4.76
 -5 -8 5 106.71 5.07
 -5 -8 6 201.16 6.14
 5 -8 -6 224.57 7.36
 -5 8 6 188.11 6.4
 -5 -8 -6 211.32 6.24
 5 -8 6 229.55 6.86
 -5 8 -6 198.92 6.06
 5 8 6 207.18 5.74
 5 8 6 202.59 5.93
 -5 -8 -6 202.34 6.4
 -5 8 6 204.66 6.19
 5 8 -6 207 7.24
 5 -8 -6 218.01 7.15
 -5 -8 -6 200.14 6.38
 -5 -8 6 193.23 6.91
 -5 8 -6 208.61 6.26
 5 8 -6 215.79 7.02
 5 -8 -7 67.51 4.05
 5 -8 7 59.87 3.53
 -5 8 -7 58.78 3.36
 5 8 7 66.37 3.41
 -5 -8 7 49.63 3.69
 -5 -8 -7 62.33 3.56
 5 -8 7 61.99 3.55
 5 8 7 63.14 3.21
 5 -8 -7 65.14 3.9
 -5 -8 -7 68.11 3.78
 -5 8 7 53.14 3.55
 -5 8 -7 58.8 3.33
 5 8 -7 61.48 3.88
 5 -9 0 0.04 0.25
 5 9 0 0.28 0.23
 -5 -9 0 0.11 0.18
 5 -9 0 0.12 0.25
 5 9 0 -0.07 0.2
 5 9 0 0.11 0.21
 -5 9 0 0.44 0.31
 -5 9 0 0.03 0.13
 5 -9 0 0.2 0.22
 -5 -9 0 0.19 0.25
 5 -9 1 421.37 8.93
 -5 9 1 435.29 7.43
 5 9 1 429.49 8.75
 5 9 -1 410.09 8.77
 -5 9 1 417.41 8.56
 -5 9 -1 432.25 8.14
 5 9 -1 442.87 8.37
 -5 -9 -1 416.89 9.09
 5 -9 -1 406.11 8.89
 5 9 1 435.57 8.32
 5 9 -1 372.96 6.83
 -5 9 1 428.43 8.53
 5 -9 -1 437.73 9.42
 5 -9 1 427.02 9.06
 -5 -9 1 464.95 8.07
 -5 -9 1 426.1 8.66
 -5 -9 -1 451.9 8.79
 5 -9 -1 428.01 7.91
 5 -9 1 442.46 7.72
 5 -9 -2 148.99 5.24
 5 9 2 152.34 5.07
 5 9 -2 159.06 5.66
 -5 9 2 164.02 5.39
 5 -9 2 156.83 5.44
 -5 9 2 162.49 5.18
 -5 9 -2 152.43 5.2
 5 9 2 158.38 5.12
 5 9 2 157.82 5.19
 5 -9 -2 155.87 5.73
 -5 -9 -2 159.88 5.5
 -5 9 -2 153.81 5.05
 5 9 -2 164.73 5.12
 5 -9 -2 164.97 5.4
 -5 -9 2 157.19 5.45
 5 -9 2 165.11 5.1
 -5 -9 -2 166.79 5.48
 -5 -9 2 164.38 4.88
 5 -9 2 159.35 5.53
 5 -9 -3 209.14 6.48
 5 9 3 189.35 5.77
 5 -9 -3 201.77 6.54
 -5 -9 -3 200.87 6.19
 5 -9 -3 204.81 6.87
 5 9 -3 206.38 6.51
 -5 9 -3 207.32 6.18
 5 -9 3 219.59 6.59
 -5 9 -3 196.05 6.03
 -5 -9 3 212.54 5.76
 5 -9 3 209.54 6.37
 5 9 3 218.11 6.07
 5 -9 3 191.3 5.88
 -5 9 3 205.33 6.04
 5 9 3 192.32 5.7
 -5 9 3 203.75 5.98
 -5 -9 3 214.61 6.66
 -5 -9 -3 198.07 6.03
 -5 9 -3 192.61 5.86
 5 9 -3 192.53 6.76
 -5 -9 -4 325.22 7.92
 5 9 -4 323.1 9.22
 -5 9 -4 329.81 7.65
 5 -9 -4 352.32 9.11
 5 -9 4 354.1 8.43
 -5 -9 4 331.85 7.54
 -5 9 4 302.15 7.4
 5 -9 4 348.67 8.45
 -5 9 -4 318.83 7.68
 5 9 4 319.62 7.68
 5 -9 -4 347.15 8.76
 -5 -9 -4 339.71 8.05
 -5 -9 4 357.09 8.97
 5 -9 4 335.5 8.05
 -5 -9 -4 334.25 8.05
 5 9 4 338.1 7.45
 -5 9 4 332.43 7.75
 -5 9 -4 338.01 7.94
 5 9 -4 328.48 8.66
 5 9 4 311.06 7.28
 5 -9 -5 37.07 2.97
 5 -9 5 36.2 2.78
 -5 9 -5 34.25 2.54
 5 9 5 33.24 2.35
 -5 -9 5 37.34 2.6
 5 -9 5 36.15 2.67
 -5 -9 -5 34.39 2.61
 -5 -9 5 35 2.95
 -5 -9 -5 32.33 2.56
 5 -9 -5 36.71 2.89
 -5 -9 -5 35.87 2.58
 5 9 -5 34.87 2.86
 5 9 -5 33.92 3.02
 -5 9 5 31.88 2.42
 -5 9 -5 35.58 2.62
 -5 9 -6 138.88 5.17
 5 9 -6 154.52 6.07
 -5 -9 -6 141.22 5.41
 5 -9 -6 149.02 5.89
 -5 9 6 141.77 5.15
 -5 -9 -6 157.73 5.44
 5 9 6 132.41 4.65
 -5 -9 6 159.89 5.51
 -5 -9 7 91.02 4.21
 -5 9 -7 79.74 3.9
 5 9 7 84.23 3.72
 5 9 -7 85.29 4.55
 5 -9 -7 82.33 4.47
 -5 -9 -7 85.25 4.2
 -5 9 7 85.2 4.02
 -5 10 0 0.06 0.2
 5 10 0 -0.04 0.23
 -5 -10 0 0.21 0.25
 5 -10 0 0.08 0.19
 5 -10 0 0.2 0.21
 -5 -10 0 0.03 0.26
 5 -10 0 -0.04 0.26
 5 10 0 0.15 0.19
 -5 10 0 1.5 0.54
 5 -10 0 0.07 0.19
 -5 10 0 1.43 0.54
 -5 -10 -1 633.17 11.5
 -5 10 -1 643.82 11.02
 -5 10 1 644.88 10.84
 5 -10 1 672.96 11.7
 5 -10 -1 672.46 12.01
 -5 10 -1 625.4 10.19
 5 10 1 675.11 10.68
 -5 -10 -1 640.96 10.77
 5 -10 -1 604.24 9.92
 5 -10 1 605.73 9.76
 -5 -10 1 623.41 10.81
 5 10 1 688.35 11.55
 5 10 -1 626.69 10.96
 5 10 -1 641.94 10.71
 5 10 1 649.22 10.64
 -5 10 -1 607.79 10.3
 -5 10 1 584.88 10.26
 5 -10 1 645.45 11.65
 -5 -10 1 629.3 9.98
 5 10 2 495.52 9.37
 5 -10 2 485.63 9.85
 -5 10 2 497.03 9.81
 -5 10 -2 504.98 9.77
 -5 -10 2 503.97 9.15
 5 10 2 501.27 9.35
 -5 10 -2 496.62 9.52
 5 10 2 482.02 9.12
 -5 -10 -2 468.18 9.67
 5 -10 -2 519.71 10.82
 -5 10 -2 464.9 8.94
 5 -10 2 493.56 9.23
 5 -10 -2 490.46 9.64
 5 10 -3 2.25 0.72
 -5 10 -3 2.02 0.65
 -5 10 -3 1.84 0.63
 -5 10 3 1.74 0.6
 -5 10 -3 1.49 0.55
 -5 -10 -3 2.04 0.67
 5 -10 -3 1.88 0.68
 5 -10 3 2.48 0.75
 5 -10 -3 2.43 0.83
 5 -10 3 2.41 0.74
 5 10 3 2.16 0.65
 5 10 3 3.13 0.79
 -5 10 3 1.93 0.61
 5 10 3 5.21 0.95
 -5 -10 3 2.36 0.69
 -5 -10 3 2.36 0.75
 -5 -10 -3 2.86 0.77
 -5 10 4 182.03 5.78
 5 10 -4 162.36 6.67
 5 -10 -4 191.37 6.8
 5 10 4 174.52 5.38
 5 -10 4 192.99 6.42
 -5 10 -4 182.3 6.02
 5 10 4 175.85 5.57
 5 -10 -4 189.68 6.61
 -5 -10 -4 184.37 6.07
 5 10 4 197.48 6.02
 -5 -10 4 203.63 6.94
 -5 10 4 189.04 5.92
 -5 -10 4 193.71 5.84
 5 -10 4 197.89 6.38
 5 10 -4 190.49 6.55
 -5 10 -4 183.78 5.98
 -5 -10 -4 206.07 6.4
 -5 -10 -4 191.97 6.16
 5 -10 -5 63.05 3.91
 -5 -10 -5 62.35 3.59
 5 10 -5 53.11 3.97
 -5 10 -5 63.26 3.52
 5 10 5 58.27 3.28
 5 10 5 59.76 3.18
 -5 10 5 58.17 3.37
 -5 10 5 56.96 3.37
 5 -10 5 64.74 3.72
 -5 -10 5 60.29 3.44
 5 -10 -5 64.2 3.91
 -5 -10 -5 60.81 3.54
 -5 -10 5 62.95 3.92
 5 10 -5 69.03 4.03
 -5 10 -5 62.87 3.53
 5 -10 -6 90.21 4.71
 5 -10 6 88.5 4.35
 -5 10 -6 83.14 4.03
 5 10 6 90.98 4
 5 10 -6 87.54 4.62
 -5 10 -6 87.21 4.12
 5 -10 6 78.56 4.01
 -5 -10 -6 86.25 4.18
 -5 -10 -6 78.29 4.05
 5 -10 -6 80.63 4.35
 -5 -10 6 79.3 4.59
 -5 10 6 80.89 3.98
 -5 10 6 68.74 3.87
 5 10 -6 74.11 4.41
 5 -11 0 -0.16 0.26
 -5 -11 0 0.04 0.2
 -5 11 0 0.13 0.24
 5 11 0 0.08 0.27
 -5 11 0 0.19 0.26
 5 -11 0 0.18 0.31
 5 -11 0 0.24 0.29
 5 11 0 0.11 0.2
 -5 11 -1 641.9 11.44
 -5 11 1 623.41 11.02
 5 11 1 613.62 10.72
 5 11 -1 692.24 11.54
 -5 -11 -1 625.61 11.04
 -5 -11 1 597.83 10.85
 5 -11 1 614.54 11.66
 -5 11 1 599.3 10.66
 5 -11 -1 619.06 11.7
 -5 11 -1 603.7 10.38
 5 11 1 638.02 11.19
 5 11 -1 623.12 11.16
 -5 -11 -1 594.51 11.53
 5 -11 -1 570.72 11.71
 5 -11 1 636.75 11.69
 -5 11 -2 171.61 5.93
 5 11 2 158.79 5.49
 -5 -11 2 170.42 6
 -5 -11 -2 173.11 6.05
 5 11 2 177.56 5.76
 5 -11 2 164.21 6.08
 -5 11 2 157.87 5.48
 5 -11 -2 156.7 5.88
 5 11 2 167.02 5.45
 5 11 -2 168.57 6.02
 -5 11 -2 167.03 5.61
 5 -11 -2 177.72 6.41
 -5 -11 -2 171.04 6.01
 5 -11 -3 79.36 4.3
 -5 -11 -3 76.22 4.02
 5 -11 -3 78.29 4.32
 5 11 3 73.1 3.66
 5 -11 3 78.67 4.08
 -5 11 -3 76.15 3.94
 5 -11 3 74.03 4.1
 -5 11 3 61.76 3.53
 5 11 3 76.63 3.88
 -5 11 3 73.71 3.77
 -5 -11 3 75.74 4.12
 -5 -11 -3 80.88 4.09
 5 11 3 68.36 3.45
 5 11 -3 75.66 4.15
 -5 11 -3 75.07 3.9
 -5 11 -3 67.42 3.53
 5 -11 4 81.76 4.25
 -5 11 -4 74.94 3.93
 -5 11 -4 68.83 3.81
 5 11 -4 60.25 4.17
 5 11 -4 81.85 4.32
 -5 11 -4 77.02 3.95
 -5 -11 -4 79.56 4.04
 5 -11 4 79.31 4.2
 -5 -11 4 89.95 4.56
 5 11 4 77.26 3.63
 -5 11 4 75.56 3.76
 5 -11 -4 82.44 4.45
 -5 -11 -4 84.15 4.17
 5 -11 -4 84.12 4.54
 -5 11 5 27.33 2.31
 -5 11 -5 29.69 2.46
 5 11 5 25.08 2.18
 -5 11 5 29.41 2.4
 -5 -11 -5 28.22 2.37
 5 -11 5 29.36 2.53
 5 11 5 25.22 2.09
 5 11 -5 21.46 2.53
 5 -11 -5 29.01 2.68
 5 -11 -5 29.48 2.67
 -5 -11 -5 28 2.42
 -5 -11 5 30.82 2.77
 -5 -11 -5 27.72 2.46
 5 11 -6 101.89 4.96
 -5 -11 -6 99.16 4.57
 5 -11 -6 103.15 4.98
 5 12 0 0.04 0.23
 -5 12 0 0.28 0.27
 5 -12 0 -0.04 0.28
 5 -12 0 0.23 0.31
 5 -12 0 0.21 0.25
 -5 12 0 0.04 0.16
 -5 -12 0 0.04 0.2
 -5 -12 -1 306.82 7.91
 -5 -12 1 307.45 7.91
 -5 -12 -1 299.23 8.41
 5 -12 1 257.91 7.92
 5 -12 -1 285.18 8.05
 5 12 1 296.62 7.67
 -5 12 -1 295.73 7.67
 -5 12 1 296.25 7.62
 5 -12 1 299.23 8.51
 5 -12 1 308.64 8.36
 -5 12 -1 290.24 7.47
 5 -12 -1 314.91 8.52
 5 12 -1 291.35 7.72
 -5 12 1 261 7.73
 -5 12 -1 291.45 7.85
 -5 -12 2 191.56 6.32
 -5 -12 -2 209.4 6.67
 5 -12 -2 179.58 6.51
 -5 -12 -2 202.39 6.71
 5 12 2 195.32 6.1
 -5 12 -2 193.3 6.11
 -5 12 -2 194.74 6.54
 5 -12 -2 186.72 6.57
 5 -12 2 190.25 6.61
 5 -12 2 189.41 6.41
 5 12 2 188 5.84
 5 12 -2 185.23 6.31
 -5 12 -2 188.53 6.2
 5 -12 3 16.77 1.99
 5 -12 -3 15.62 1.98
 5 -12 -3 14.48 1.89
 -5 12 -3 13.14 1.7
 -5 12 3 13.81 1.7
 5 12 3 13.94 1.65
 -5 -12 3 14.65 1.83
 -5 -12 -3 14.56 1.8
 -5 12 3 12.93 1.62
 -5 12 -3 14.52 1.69
 5 12 3 14.37 1.72
 -5 12 -3 14.76 1.76
 5 -12 3 15.48 1.86
 -5 -12 -3 13.55 1.74
 5 12 -3 14.45 1.85
 5 12 3 12.5 1.49
 -5 12 4 60.91 3.55
 5 -12 4 74.8 4.09
 5 -12 -4 67.74 4.08
 5 12 4 72.24 3.8
 5 -12 -4 69.67 4.13
 5 12 4 63.37 3.3
 -5 -12 -4 64.68 3.73
 -5 12 -4 65.39 3.69
 -5 -12 -5 12.9 1.67
 5 -12 -5 13.36 1.86
 -5 12 5 12.36 1.57
 -5 12 5 12.84 1.59
 -5 12 -5 12.12 1.63
 5 12 5 13.14 1.49
 -5 12 -5 12.99 1.66
 5 12 -5 14.46 1.87
 5 -12 5 11.81 1.63
 -5 -12 5 11.99 1.74
 5 -12 5 14.2 1.81
 5 12 5 12.18 1.55
 5 -12 -5 13.76 1.87
 -5 -12 -5 12.48 1.63
 5 13 0 0.04 0.2
 5 13 0 0.36 0.32
 -5 13 0 0.04 0.19
 5 -13 0 0.18 0.3
 5 -13 0 0.09 0.32
 5 -13 0 0.05 0.21
 -5 13 0 0.11 0.21
 -5 -13 0 -0.04 0.22
 -5 13 1 348.41 8.81
 -5 -13 -1 352.35 9.11
 5 -13 -1 301.86 8.4
 5 13 -1 323.46 8.18
 5 13 1 330.19 8.23
 5 -13 1 332.95 9
 5 -13 1 340.37 8.93
 5 13 1 344.13 8.34
 5 -13 -1 353.93 9.21
 -5 13 1 335.81 8.26
 -5 -13 -1 331.52 8.41
 -5 -13 1 321.91 8.27
 -5 13 -2 172.16 6.2
 -5 13 2 190.34 6.27
 5 13 -2 184.43 6.39
 5 13 2 161.88 5.51
 5 -13 2 177.41 6.6
 5 -13 -2 200.75 7.04
 5 13 2 178.5 5.88
 -5 13 2 171.03 5.86
 -5 -13 -2 181.01 6.29
 -5 -13 2 182.95 6.26
 -5 -13 -2 177.92 6.4
 -5 13 -2 175.15 6.07
 5 -13 2 187.32 6.63
 5 -13 3 34.7 2.83
 5 -13 -3 25.79 2.53
 -5 -13 -3 29.05 2.58
 -5 -13 -3 31.65 2.66
 -5 -13 3 31.29 2.74
 5 13 3 30.57 2.54
 -5 13 3 30.01 2.43
 5 -13 3 27.37 2.63
 5 -13 -3 30.13 2.78
 5 13 3 27.3 2.21
 5 13 -3 28.09 2.55
 -5 13 -3 29.78 2.54
 5 -13 4 78.61 4.36
 5 -13 -4 71.52 4.33
 -5 -13 -4 68.13 3.92
 5 -13 -4 72.76 4.43
 5 -13 4 76.18 4.17
 -5 13 -4 69.82 3.9
 5 13 4 70.78 3.75
 5 13 -4 73.11 4.27
 -5 -13 4 78.57 4.37
 -5 -13 -4 75.74 4.06
 -5 13 -4 71.67 3.92
 -5 13 4 68.28 3.73
 5 13 4 68.36 3.55
 -5 13 4 65.48 3.59
 5 -14 0 0.14 0.28
 5 -14 0 0.14 0.28
 -5 -14 0 0.04 0.24
 5 -14 0 -0.05 0.24
 -5 14 0 -0.04 0.23
 -5 14 0 0.17 0.29
 -5 14 -1 173 5.92
 -5 14 -1 162.22 6.2
 -5 -14 1 161.22 5.89
 -5 -14 -1 173.53 6.13
 5 14 1 171.12 5.94
 5 14 -1 163.36 5.94
 5 -14 -1 147.56 5.98
 5 -14 -1 181.45 6.74
 5 -14 1 183.09 6.8
 5 -14 1 151.1 6.02
 5 14 2 209.91 6.45
 -5 14 2 197.66 6.33
 -5 14 -2 185.69 6.23
 -5 14 -2 192.53 6.63
 -5 14 2 215.07 6.7
 5 -14 -2 235.84 7.79
 5 14 2 197.48 6.08
 5 14 -2 194.76 6.58
 5 -14 2 202.13 7.2
 -5 -14 -2 211.24 6.91
 -5 -14 2 208.49 6.79
 5 -14 -2 194.89 7.15
 -5 -14 -2 196.38 7.02
 5 -14 -3 5.19 1.23
 5 -14 3 6.27 1.25
 -5 14 -3 5.98 1.19
 -5 -14 3 6.29 1.21
 -5 -14 -3 4.96 1.1
 5 14 -3 5.74 1.18
 5 14 3 4.95 0.97
 -5 14 -3 5.61 1.13
 -5 -14 -3 5.26 1.15
 -5 14 3 5.07 1.02
 5 14 3 4.55 0.96
 5 -14 -3 4.14 1.06
 5 -14 3 5.82 1.23
 5 -14 -4 149.33 6.14
 -5 -15 0 0.2 0.3
 -5 15 0 0.04 0.2
 5 -15 0 0.28 0.42
 -5 15 0 0.04 0.18
 5 15 0 0.04 0.19
 5 15 1 82.08 4.14
 5 -15 1 80.78 4.51
 5 15 1 77.91 4
 -5 15 -1 65.49 4.03
 5 -15 -1 79.46 4.49
 -5 15 1 77.02 4.01
 -5 15 -1 76.05 4.03
 -5 -15 -1 73.1 4.46
 5 15 2 45.39 2.99
 5 -15 -2 39.56 3.3
 5 15 2 41.09 2.8
 6 0 0 3.6 0.5
 6 0 0 4.06 0.62
 -6 0 0 4.49 0.41
 6 0 1 289.57 4.58
 -6 0 1 295.16 4.62
 -6 0 -1 297.37 4.23
 6 0 -1 278.15 4.52
 -6 0 -1 287.61 5.47
 6 0 -1 288.81 4.44
 6 0 1 308.07 3.87
 6 0 1 309.66 5.83
 6 0 -1 275.3 4.58
 6 0 -1 289.9 4.73
 -6 0 1 305.47 3.85
 6 0 2 327.95 5.69
 6 0 -2 325.88 4.61
 -6 0 -2 312.61 5.41
 -6 0 -2 328.95 6.19
 -6 0 -2 314.26 4.47
 -6 0 2 324.77 4.17
 -6 0 2 300.42 6.29
 -6 0 2 316.54 4.72
 6 0 2 324.66 4.57
 6 0 -2 322.27 4.49
 6 0 2 325.01 6.4
 6 0 3 844.28 10.29
 -6 0 3 772.28 7.93
 6 0 3 798.3 8.45
 -6 0 -3 792.99 10.04
 6 0 -3 779.88 10.57
 -6 0 3 852.17 11.62
 6 0 3 876.96 11.03
 6 0 -3 813.91 7.58
 -6 0 -3 826.11 10.51
 6 0 -3 813.74 10.91
 -6 0 3 738.4 4.81
 6 0 4 1.35 0.49
 -6 0 4 0.45 0.25
 6 0 4 0.31 0.26
 6 0 4 1 0.38
 -6 0 4 0.63 0.4
 6 0 -4 0.7 0.27
 6 0 4 1.28 0.46
 -6 0 -4 0.6 0.36
 6 0 -4 1.08 0.46
 -6 0 -4 0.56 0.3
 -6 0 -4 0.58 0.3
 6 0 -5 3145.39 25.25
 6 0 5 2964.26 22.4
 -6 0 5 3102.61 19.65
 6 0 5 3039.57 23.5
 -6 0 -5 3173.73 25.53
 -6 0 -5 3197.15 23.22
 -6 0 5 3037.45 24.66
 6 0 5 3053.09 20.87
 -6 0 -6 0.16 0.23
 -6 0 -6 -0.03 0.19
 6 0 6 -0.03 0.16
 6 0 6 0.03 0.15
 -6 0 -6 0.38 0.33
 -6 0 -7 27.49 2.5
 6 0 7 25.47 2.09
 6 0 7 27.04 2.37
 -6 0 -7 29.52 2.5
 -6 0 -7 28.01 2.14
 -6 0 8 0.23 0.27
 6 0 8 0.46 0.37
 -6 0 -8 0.34 0.27
 6 0 -8 0.39 0.34
 6 1 0 3360.98 12.94
 6 -1 0 3418.54 16.65
 -6 -1 0 3236.4 13.84
 6 -1 0 3249.42 18.17
 6 1 0 3464.47 17.59
 6 -1 1 0.09 0.11
 -6 -1 1 0.04 0.1
 6 1 -1 0.01 0.1
 6 1 1 0.07 0.1
 -6 1 -1 0.46 0.25
 -6 1 1 0.04 0.09
 -6 -1 1 0.01 0.08
 -6 -1 -1 -0.02 0.12
 6 -1 -1 0.18 0.12
 -6 -1 -1 0.1 0.08
 6 1 -1 0.09 0.12
 -6 -1 1 0.23 0.13
 -6 1 1 0.03 0.06
 -6 1 -1 0.62 0.2
 -6 -1 1 0.1 0.11
 -6 -1 -1 0.55 0.22
 6 1 -1 0.05 0.11
 6 1 -1 0.13 0.12
 6 -1 1 0.06 0.14
 6 1 1 0.2 0.16
 -6 -1 -2 1651.62 10.92
 6 1 2 1735.46 9.61
 6 -1 -2 1741.62 14.26
 6 1 -2 1650.41 12.91
 -6 1 2 1595.05 13.73
 6 1 2 1829.35 15.12
 6 -1 2 1753.98 13.43
 6 -1 2 1806.74 15.22
 6 1 -2 1696 9.23
 -6 -1 -2 1793.61 13.42
 -6 1 -2 1712.68 12.44
 -6 1 2 1525 8.15
 -6 -1 -2 1867.21 14.66
 -6 1 -2 1786.46 14.61
 -6 -1 2 1624.74 9.65
 6 1 -2 1569.13 11.7
 6 -1 -2 1664.12 8.13
 -6 1 -2 1727.59 9.62
 6 1 -2 1708.3 14.02
 6 1 2 1875.41 15.03
 -6 -1 2 1676.24 10.76
 6 1 -3 4.87 0.86
 -6 1 -3 3.43 0.63
 -6 -1 -3 4.88 0.74
 6 -1 -3 3.55 0.73
 -6 1 3 3.03 0.55
 -6 -1 3 3.65 0.49
 6 -1 -3 3.32 0.71
 -6 1 3 3.49 0.78
 6 1 3 3.38 0.67
 6 -1 3 3.29 0.67
 6 1 3 3.36 0.65
 -6 -1 -3 5.7 0.9
 -6 1 -3 3.74 0.72
 6 -1 3 4.78 0.84
 6 -1 -3 2.89 0.37
 6 -1 3 4.19 0.65
 -6 -1 -3 3.23 0.65
 -6 1 -3 3.8 0.73
 -6 -1 3 3.67 0.74
 6 1 3 3.37 0.54
 6 1 3 3.33 0.72
 6 1 -3 3.45 0.55
 -6 1 -4 0.57 0.34
 -6 -1 -4 0.83 0.38
 -6 -1 4 0.32 0.31
 6 1 4 0.68 0.32
 -6 1 4 0.46 0.36
 6 -1 -4 0.24 0.28
 6 -1 4 0.99 0.4
 6 1 4 0.96 0.4
 6 -1 -4 0.34 0.17
 6 1 -4 0.38 0.22
 -6 -1 -4 1.01 0.39
 -6 1 -4 0.45 0.28
 -6 1 4 0.47 0.26
 6 1 4 0.35 0.27
 -6 -1 4 0.53 0.23
 -6 1 4 0.34 0.18
 6 -1 4 0.26 0.24
 6 1 4 0.27 0.23
 6 1 -4 0.6 0.34
 -6 1 -4 0.89 0.37
 6 -1 -4 0.54 0.34
 -6 -1 -4 0.86 0.35
 -6 -1 -5 29.32 2.12
 -6 1 -5 30.37 2.16
 -6 1 -5 26.95 2.26
 6 1 5 29.37 2.25
 -6 1 5 28.54 2
 6 -1 5 29.95 2.3
 -6 -1 -5 30.63 2.26
 6 1 -5 30.39 2
 -6 1 -5 30.7 2.28
 -6 1 -5 28.11 2.22
 6 -1 -5 31.75 2.57
 6 1 -5 29.98 2.44
 6 1 5 28.2 2.12
 6 1 5 29.14 2
 -6 1 5 26.96 2.32
 -6 -1 5 28.54 2.34
 6 -1 5 27.78 1.99
 6 -1 5 30.62 2.31
 -6 -1 -6 426.72 8.25
 6 1 6 388.39 8.33
 -6 1 -6 343.82 8.52
 -6 -1 -6 383.66 9.02
 6 -1 6 409.98 8.74
 -6 1 -6 402.89 8.3
 -6 1 -6 421.05 9.01
 6 1 6 378.67 7.73
 -6 -1 6 365.41 8.59
 6 -1 6 372.04 7.77
 6 1 6 424.03 8.68
 6 1 6 422.82 8.69
 -6 -1 -6 397.8 8.55
 -6 1 -7 0.95 0.43
 -6 -1 -7 1.09 0.45
 -6 1 7 0.63 0.43
 6 -1 7 0.73 0.38
 6 1 7 0.86 0.4
 -6 -1 -7 0.48 0.37
 6 -1 7 0.85 0.45
 6 1 7 1.27 0.51
 -6 1 -7 2.33 0.62
 6 1 7 0.68 0.39
 6 -1 7 1.82 0.6
 6 1 7 0.8 0.41
 -6 -1 -7 0.85 0.38
 -6 -1 -7 0.81 0.42
 -6 1 -8 119.52 4.48
 6 -1 8 113.27 4.88
 6 1 8 109.38 4.63
 6 1 8 126.19 4.82
 -6 -1 -8 119.48 4.55
 -6 1 -8 114.68 4.45
 6 -1 -8 109.04 5.04
 6 1 -8 119.46 5.16
 -6 -1 -8 116.21 5.09
 -6 1 8 107.95 4.74
 -6 -1 8 113.96 4.79
 6 -1 8 107.58 4.35
 -6 -2 0 19.09 1.47
 6 2 0 17.94 1.24
 -6 -2 0 19.31 1.18
 6 -2 0 17.5 1.3
 -6 2 0 17.48 1.32
 6 2 0 18.42 1.38
 6 -2 0 16.77 0.68
 6 -2 0 21.19 1.53
 6 2 -1 204.34 4.3
 6 -2 -1 176.81 3.52
 6 2 -1 178.41 3.05
 6 -2 -1 172.46 4.3
 6 2 1 186.42 3
 6 2 1 193.3 4.52
 6 2 1 188.62 4.38
 6 -2 1 184.37 3.99
 -6 2 1 147.96 2.05
 -6 2 -1 189.75 4.36
 -6 2 1 176.67 3.44
 -6 -2 -1 186.75 3.43
 -6 -2 -1 196.88 4.83
 6 2 -1 178.83 3.54
 6 -2 -1 190.2 4.49
 6 -2 1 185.93 4.73
 -6 -2 1 185.73 3.17
 6 2 1 196.08 4.76
 6 2 -1 192.14 4.66
 -6 -2 -2 0.65 0.26
 -6 2 -2 0.62 0.28
 -6 -2 -2 1.37 0.43
 6 2 2 0.51 0.27
 6 2 -2 0.57 0.17
 6 -2 2 0.62 0.3
 -6 -2 2 0.71 0.29
 6 -2 2 0.48 0.24
 6 -2 -2 0.52 0.3
 6 2 2 0.51 0.24
 -6 2 -2 0.81 0.23
 6 2 -2 1.44 0.43
 -6 2 2 0.87 0.18
 -6 -2 -2 0.76 0.31
 6 2 2 2.46 0.34
 6 2 2 0.49 0.27
 -6 2 2 2.59 0.51
 -6 -2 2 1.96 0.28
 6 2 -2 0.66 0.27
 -6 -2 -3 2838.1 17.94
 6 -2 -3 2905.16 20.56
 -6 -2 3 2903.1 19.6
 -6 2 -3 2965.76 19.82
 -6 -2 -3 3098.54 20.48
 6 2 3 2922.75 18.59
 -6 2 -3 3043.55 20.24
 -6 -2 -3 2885.48 19.75
 6 2 3 2924.44 21.01
 6 -2 3 2796.18 17.45
 6 2 3 2685.09 19.35
 6 -2 3 2780.11 20.42
 -6 2 3 2786.61 17.51
 6 2 -3 2868.03 17.61
 6 2 -3 2935.81 21.55
 -6 -2 -4 68.57 3.17
 6 -2 -4 70.33 3.54
 -6 -2 4 75.12 3.48
 6 2 4 72.26 2.82
 6 -2 4 71.52 3.04
 6 -2 -4 69.83 3.64
 6 -2 4 71.46 3.45
 -6 -2 -4 70.97 3.44
 6 2 4 69.6 3.34
 -6 -2 4 59.47 1.95
 -6 2 4 69.22 3.74
 6 2 4 76.05 3.28
 6 -2 -4 65.06 1.63
 6 2 -4 73.13 3.06
 -6 2 4 63.99 2.44
 -6 2 4 72.66 3.05
 -6 2 -4 70.55 3.41
 6 2 4 71.07 3.19
 -6 2 -4 69.89 3.05
 6 2 -4 70.57 3.63
 -6 2 -4 72.33 3.18
 -6 -2 -4 71.59 3.22
 6 -2 -5 703.96 12.22
 -6 2 -5 759.21 10.78
 -6 -2 -5 794.9 10.96
 6 -2 -5 782.57 12.38
 -6 -2 -5 795.63 11.49
 -6 -2 -5 790.58 12.07
 -6 2 -5 754.46 11.18
 6 2 -5 751.11 12.47
 6 2 5 776.94 10.07
 6 -2 5 739.54 10.21
 -6 2 5 738.83 12.21
 -6 2 -5 757.26 11.22
 6 2 5 801.66 11.69
 6 -2 5 793.49 11.84
 -6 2 5 757.7 10.53
 -6 -2 -6 3.2 0.78
 -6 2 6 3.82 0.91
 6 2 6 3.52 0.74
 6 -2 6 3.92 0.81
 -6 -2 6 4.02 0.92
 -6 -2 -6 4.72 0.88
 -6 2 -6 4.27 0.85
 -6 2 -6 3.54 0.81
 -6 2 -6 3.34 0.82
 6 2 -6 3.34 0.87
 6 -2 6 3.54 0.87
 6 2 6 2.96 0.73
 6 2 6 4.43 0.89
 6 2 7 104.4 4.35
 -6 -2 -7 118.31 4.84
 6 2 -7 103.07 4.91
 6 2 7 108.85 4.51
 6 -2 7 101.63 4.56
 6 2 7 114.77 4.55
 6 -2 7 106.56 4.85
 -6 2 7 97.86 4.55
 6 -2 7 108.15 4.28
 -6 -2 -7 115.72 4.4
 -6 2 -7 104.61 4.15
 -6 2 -7 111.65 4.38
 -6 2 -8 0.42 0.33
 -6 -2 -8 0.29 0.28
 6 2 8 0.4 0.32
 6 -2 -8 0.39 0.35
 6 2 -8 0.35 0.34
 -6 2 8 0.27 0.35
 6 -2 8 0.41 0.31
 -6 -2 8 0.55 0.38
 6 -2 8 0.37 0.34
 6 2 8 0.4 0.31
 -6 -2 -8 0.53 0.42
 6 -3 0 1685.73 13.84
 6 -3 0 1558.15 14.4
 6 -3 0 1727.94 9.23
 -6 -3 0 1696.68 12.38
 6 3 0 1868.04 14.88
 6 -3 0 1552.16 13.85
 6 3 0 1627.12 12.09
 -6 3 0 1351.78 12.32
 -6 3 0 1601.83 13.04
 -6 3 1 459.43 5.39
 -6 3 -1 473.12 7.07
 -6 3 -1 469.35 6.71
 -6 3 1 436.79 3.94
 6 -3 1 423.3 6.78
 6 -3 -1 420.37 5.87
 -6 -3 -1 449.55 6.09
 6 -3 -1 443.81 7.32
 6 3 1 445.57 4.25
 6 -3 1 450.18 7.15
 -6 -3 1 440.04 3.08
 6 3 -1 398.7 5.34
 6 3 1 420.1 6.71
 6 3 1 430.62 6.86
 -6 3 1 381.83 2.97
 -6 -3 1 448 6.8
 -6 -3 -1 435.85 6.44
 6 -3 -1 363.24 6.58
 6 -3 1 435.57 7.63
 -6 3 1 440.87 6.84
 -6 -3 -1 437.22 7.47
 -6 -3 1 441.89 4.57
 6 3 -1 470.57 7.38
 6 3 1 451.62 7.48
 -6 3 -2 3068.26 15.21
 6 3 -2 3164.12 20.61
 -6 -3 -2 3237.95 17.77
 6 -3 -2 3359.79 20.26
 6 3 2 3197.88 11.95
 6 -3 -2 3138.58 21.03
 6 -3 2 3104.16 19.95
 6 3 -2 3116.75 12.1
 -6 -3 -2 3201.13 19.35
 6 3 2 3138.44 20.06
 6 3 2 3273.62 16.25
 6 -3 -2 3055.58 17.02
 -6 3 -2 3177.66 19.77
 -6 3 2 3165.22 11.56
 6 3 -2 3086.13 19.08
 -6 -3 -2 3212.59 20.44
 -6 -3 2 2962.64 18.8
 6 -3 2 2956.83 18.17
 -6 3 2 3157.88 19.05
 -6 3 -3 2.68 0.55
 6 -3 -3 3.27 0.72
 -6 -3 -3 3.3 0.66
 -6 3 -3 3.08 0.66
 -6 -3 -3 3.28 0.71
 6 -3 3 3.33 0.71
 6 3 3 3.26 0.7
 -6 -3 -3 3.05 0.68
 6 -3 -3 5.2 0.86
 6 -3 3 2.42 0.55
 -6 -3 3 2.73 0.58
 6 3 3 2.54 0.48
 6 3 3 3.02 0.65
 6 3 -3 3.17 0.64
 6 -3 3 2.75 0.67
 -6 3 3 3.31 0.65
 -6 3 -3 3.82 0.77
 6 -3 4 0.41 0.29
 6 -3 -4 1.1 0.49
 -6 -3 -4 0.32 0.3
 6 -3 4 0.42 0.31
 -6 -3 4 0.37 0.3
 6 3 4 0.59 0.29
 -6 -3 -4 0.41 0.28
 6 3 -4 0.22 0.23
 -6 3 -4 0.27 0.27
 6 -3 -4 0.96 0.44
 -6 -3 -4 1.43 0.48
 6 3 -4 0.4 0.32
 -6 3 -4 0.6 0.31
 -6 3 4 0.26 0.23
 -6 3 4 0.53 0.27
 6 -3 4 0.4 0.29
 -6 -3 -5 5.27 0.97
 6 -3 -5 5.7 1.07
 6 -3 -5 3.62 0.89
 6 3 5 4.73 0.86
 -6 3 5 5.2 0.91
 -6 -3 -5 3.85 0.85
 6 3 5 4.13 0.83
 -6 3 -5 4.76 0.87
 -6 -3 -5 4.65 0.85
 -6 3 -5 4.85 0.9
 6 3 -5 4.15 0.95
 -6 3 -5 4.61 0.92
 6 -3 5 4.34 0.9
 6 -3 5 4.25 0.89
 6 -3 5 5.13 0.91
 -6 -3 5 4.46 0.88
 6 3 5 4.12 0.75
 6 3 -5 4.09 0.84
 6 3 6 241.05 6.23
 -6 3 -6 225.46 6.02
 -6 -3 -6 248.78 7.09
 6 3 6 247.4 6.54
 -6 3 6 224.07 6.33
 6 -3 6 246.78 6.91
 6 3 6 243.18 5.97
 6 -3 6 228.03 6.14
 6 -3 -6 240.4 7.25
 -6 -3 -6 243.73 6.75
 -6 3 -6 244.4 6.54
 6 -3 6 247.34 6.91
 6 3 -6 226.71 7.2
 -6 3 -6 253.15 7.05
 -6 3 6 219.06 6.96
 6 -3 7 10.23 1.45
 6 3 7 9.28 1.3
 6 3 7 10.26 1.33
 -6 3 7 8.69 1.4
 6 -3 7 9 1.27
 6 3 -7 8.77 1.48
 6 -3 -7 11.13 1.59
 -6 -3 -7 11 1.51
 -6 -3 -7 9.54 1.28
 6 -3 7 11.09 1.62
 -6 3 -7 9.27 1.27
 -6 -3 -7 9.8 1.47
 -6 -3 -8 523.67 10.64
 6 -3 -8 448.33 10.3
 6 3 -8 427.96 9.94
 -6 -3 8 459.19 9.49
 6 -3 8 398.57 8.56
 -6 3 8 425.53 9.25
 6 3 8 430.44 9.12
 6 -3 8 429.67 9.43
 6 3 8 509.45 9.42
 -6 -4 0 9.86 0.48
 -6 4 0 10.11 0.88
 6 -4 0 7.68 1.04
 6 4 0 6.41 0.4
 6 -4 0 8.43 0.82
 6 -4 0 10.02 1.15
 6 4 0 8.07 0.85
 6 4 0 8.28 0.92
 -6 -4 0 10.06 1.06
 -6 4 0 9.92 0.96
 6 4 0 9.01 1.1
 -6 4 0 9.38 1.06
 -6 4 1 421.78 4.07
 -6 4 -1 451.03 6.77
 -6 -4 1 440.99 4.84
 6 -4 1 423.9 7.24
 6 -4 -1 438.21 6.54
 -6 -4 -1 429.76 6.56
 6 -4 -1 436.2 7.79
 -6 4 1 404.84 5.43
 6 -4 1 435.82 7.45
 6 4 1 403.06 3.85
 6 -4 -1 413.18 4.47
 6 4 1 426.69 6.87
 -6 4 1 411.67 6.88
 -6 -4 -1 428.33 7.34
 6 4 -1 448.03 7.71
 6 4 1 429.57 7.53
 6 -4 1 448.92 4.5
 -6 -4 1 419.61 6.86
 -6 -4 -1 418.37 6.67
 6 4 -1 392.26 5.53
 6 4 1 437.95 7.14
 6 4 2 11.88 1.28
 6 4 -2 11.19 1.21
 6 -4 2 13.21 1.44
 6 -4 -2 11.19 1.04
 6 4 2 12.27 1.27
 -6 4 -2 13.69 1.31
 6 4 -2 11.36 1.3
 6 -4 -2 12.78 1.29
 -6 -4 -2 11.58 1.15
 6 -4 -2 11.91 1.36
 -6 4 2 10.09 0.76
 6 -4 2 12.22 1.31
 -6 -4 2 11.94 0.85
 -6 -4 -2 11.32 1.2
 -6 -4 -2 14.41 1.38
 -6 -4 2 10.18 1.17
 -6 4 -2 13.5 1.28
 6 -4 2 11.2 1.16
 6 4 2 12.86 0.83
 6 4 2 11.19 1.22
 6 4 -2 10.88 0.77
 -6 4 -3 522.62 7.89
 6 4 -3 545.52 10.15
 -6 -4 -3 537.72 8.6
 6 -4 -3 534.78 9.36
 -6 -4 3 521.46 7.84
 6 -4 -3 501.9 9.26
 6 -4 3 536.52 9.09
 -6 4 -3 530.98 8.78
 6 -4 3 489.2 8.22
 6 4 3 496.1 8.92
 6 4 -3 537.87 8.82
 -6 -4 -3 546.84 8.94
 6 -4 -3 505.72 8.63
 6 4 3 531.63 8.45
 -6 -4 -3 535.47 8.98
 6 -4 3 553.01 9.51
 -6 4 -3 519.32 8.34
 -6 4 3 540.75 8.62
 -6 -4 3 561.63 9.67
 6 4 -4 3.13 0.73
 -6 4 -4 3.16 0.69
 6 4 -4 4.12 0.95
 6 -4 -4 3.16 0.79
 -6 -4 -4 3.47 0.75
 -6 -4 4 3.07 0.67
 6 4 4 4.14 0.69
 6 4 4 3.11 0.69
 6 -4 4 2.81 0.71
 6 4 4 2.81 0.68
 6 -4 4 3 0.69
 -6 -4 -4 3.91 0.85
 -6 4 -4 3.43 0.72
 -6 4 4 2.89 0.67
 -6 -4 4 2.6 0.76
 -6 4 4 3.29 0.66
 -6 4 -4 3.92 0.79
 6 -4 -5 1095.1 14.95
 -6 -4 5 1097.65 13.72
 6 4 5 1084.65 12.27
 6 4 5 1158.13 13.42
 -6 -4 -5 1152.46 13.45
 -6 4 -5 1058.12 12.84
 -6 4 5 1003.88 14.64
 6 -4 5 1132.14 14.54
 6 4 5 1370.62 15.17
 6 -4 -5 990.39 15.76
 -6 -4 -5 1197.31 15.22
 -6 4 -5 1012.14 13.04
 6 4 -5 1151 14.3
 -6 4 5 1108.36 13.72
 6 -4 5 1067.22 13.19
 6 -4 5 1131 14.48
 6 4 -5 994.93 15.1
 -6 4 -5 1045.2 13.64
 6 -4 -6 52.98 3.46
 6 4 6 59.97 3.09
 -6 -4 -6 62.83 3.18
 -6 4 -6 54.32 2.95
 -6 4 -6 56.83 3.08
 6 -4 6 60.24 3.42
 -6 -4 -6 58.48 3.39
 -6 4 6 57.19 3.21
 6 4 6 62.9 3.25
 -6 -4 6 63.32 3.45
 -6 -4 -6 64.68 3.59
 6 -4 -6 62.5 3.71
 6 -4 6 63.59 3.57
 6 4 -6 61.28 3.77
 -6 4 -6 58.37 3.41
 6 -4 6 62.22 3.27
 -6 4 6 54.66 3.48
 6 -4 7 96.73 4.38
 6 -4 -7 102.36 4.79
 -6 -4 -7 103.19 4.54
 6 4 7 98.45 4.01
 6 4 7 100.3 4.2
 6 4 -7 90.79 4.83
 -6 4 -7 90.47 3.94
 -6 4 7 84.77 4.24
 -6 -4 -7 106.34 4.83
 -6 4 -7 89.42 3.78
 -6 -4 -7 103.31 4.18
 -6 -4 7 102.98 4.49
 6 -4 7 91.01 4.08
 6 -4 8 0.29 0.32
 6 4 8 0.32 0.27
 -6 -4 -8 0.37 0.37
 -6 4 -8 0.72 0.37
 6 4 8 0.64 0.37
 6 -4 8 0.4 0.32
 -6 4 8 0.26 0.29
 -6 -4 8 0.3 0.33
 -6 4 -8 0.29 0.27
 6 -4 -8 0.47 0.37
 6 4 -8 1.18 0.54
 6 -5 0 6894.98 31.93
 -6 5 0 6283.93 28.68
 -6 5 0 6970.76 23.88
 -6 5 0 7040.32 26.92
 -6 -5 0 6847.59 29.2
 6 -5 0 7135.68 26.5
 6 5 0 6854.26 27.2
 -6 5 1 25.32 1.14
 -6 5 -1 27.44 1.75
 -6 5 -1 24.33 1.78
 -6 -5 1 26.16 1.28
 6 -5 1 22.97 1.83
 6 -5 -1 25.68 1.72
 -6 -5 -1 24.68 1.72
 6 -5 -1 25.61 1.97
 6 -5 1 25.53 1.9
 6 5 1 22.55 1.63
 6 5 -1 20.61 1.06
 -6 5 1 25.02 1.51
 6 -5 -1 24.17 1.3
 -6 5 1 25.11 1.78
 6 5 1 25.23 1.89
 6 -5 1 26.48 2.09
 -6 5 -1 25.84 1.75
 -6 -5 1 25.76 1.82
 6 -5 1 25.67 1.27
 6 5 -1 23.42 1.45
 6 5 1 25.57 1.76
 6 5 2 708.4 10.09
 6 5 -2 725.89 10.28
 -6 -5 2 678.73 9.87
 -6 5 -2 688.91 9.37
 6 -5 2 653.87 9.93
 6 -5 -2 714.79 10.1
 -6 -5 -2 723.2 9.82
 6 -5 -2 656.19 10.13
 6 5 2 631.83 6.74
 6 -5 2 704.26 10.17
 -6 5 2 698.35 7.31
 -6 -5 2 683.45 6.43
 6 5 2 674.01 9.8
 -6 5 2 685.23 9.74
 -6 -5 -2 743.02 10.56
 -6 -5 -2 758.89 10.14
 6 5 -2 622.62 6.61
 6 5 2 662.75 9.21
 -6 -5 2 699.38 7.91
 6 -5 2 670.9 10.7
 6 -5 -2 680.34 8.36
 6 5 -3 3.64 0.76
 -6 5 -3 3.94 0.76
 -6 5 -3 3.99 0.74
 6 5 -3 4.1 0.9
 -6 -5 -3 4.43 0.81
 6 -5 -3 4.54 0.88
 6 5 3 5.74 0.94
 6 -5 -3 3.56 0.82
 6 -5 3 4.28 0.86
 -6 -5 3 4.35 0.7
 6 5 3 3.92 0.76
 6 -5 -3 3.8 0.77
 -6 -5 -3 3.75 0.77
 -6 5 -3 3.1 0.66
 -6 -5 3 4.31 0.88
 -6 -5 -3 4.58 0.87
 6 -5 3 4.14 0.8
 -6 5 3 6.96 1.04
 6 -5 3 4.05 0.85
 6 5 3 4.57 0.67
 -6 -5 3 8.53 1.02
 6 5 4 0.33 0.23
 -6 -5 4 0.25 0.23
 6 5 4 0.41 0.26
 -6 5 4 0.81 0.44
 6 5 4 1.24 0.45
 6 -5 4 0.24 0.28
 -6 5 4 0.24 0.22
 6 -5 -4 0.15 0.24
 6 5 -4 -0.04 0.13
 -6 -5 -4 0.32 0.28
 6 -5 -4 0.08 0.23
 6 -5 4 0.1 0.17
 -6 -5 4 0.52 0.31
 -6 -5 -4 0.06 0.15
 -6 5 -4 0.06 0.14
 -6 -5 -4 0.16 0.22
 -6 -5 4 0.83 0.45
 -6 5 -4 0.2 0.24
 6 5 -4 0.24 0.24
 6 -5 -5 6.36 1.19
 -6 -5 -5 5.55 1.01
 6 5 5 5.57 0.9
 -6 -5 5 5.93 1.01
 6 -5 -5 5.37 1.12
 -6 -5 5 5.63 1.03
 6 -5 -5 6.41 1.22
 -6 -5 -5 6.81 1.15
 -6 -5 5 5.45 1.16
 6 -5 5 6.01 1.02
 -6 -5 -5 6.43 1.05
 6 -5 5 5.55 1.05
 -6 5 5 5.4 0.93
 -6 5 5 5.68 1.01
 6 5 -5 5.58 1.15
 -6 5 -5 4.4 0.9
 6 5 -6 389.38 9.72
 -6 -5 6 405.63 8.7
 6 -5 -6 389.11 9.68
 6 -5 6 392.88 8.88
 6 5 6 378.47 7.78
 6 5 6 398.09 8.22
 6 5 -6 412.43 9.23
 6 -5 6 380.69 8.23
 -6 5 -6 387.04 8.18
 -6 5 6 389.6 8.36
 -6 5 -6 354.96 7.66
 -6 -5 -6 380.58 7.94
 -6 5 6 357.21 9.18
 6 -5 -6 369.8 9.06
 -6 -5 -6 436.94 9.24
 6 -5 -6 380.34 10.13
 -6 5 7 12.53 1.68
 -6 5 -7 11.92 1.44
 6 -5 7 12.03 1.63
 -6 -5 -7 14.14 1.76
 6 5 7 12.64 1.49
 6 5 -7 13.05 1.85
 6 -5 7 13.37 1.59
 -6 5 -7 12.16 1.47
 6 -5 -7 15.33 1.87
 6 5 7 14.98 1.57
 -6 -5 7 14.41 1.7
 -6 -5 8 169.74 5.79
 6 -5 -8 146.05 5.74
 6 -5 8 137.99 5.14
 6 5 8 168.58 5.21
 -6 5 -8 151.48 5.17
 -6 -6 0 4.6 0.56
 6 -6 0 4.81 0.92
 6 -6 0 4.62 0.88
 6 6 0 4.14 0.69
 6 -6 0 4.32 0.74
 -6 6 0 4.83 0.77
 -6 -6 0 4.38 0.8
 6 -6 0 4.08 0.53
 -6 6 0 5.14 0.85
 -6 6 0 5.59 0.73
 6 6 0 5.04 0.93
 6 6 0 4.58 0.75
 -6 6 -1 235.53 5.83
 -6 -6 -1 246.1 5.96
 6 -6 -1 280.26 6.36
 6 -6 -1 242.96 6.45
 -6 -6 1 269.23 4.64
 6 -6 1 241.88 6.08
 6 -6 1 254.88 6.29
 6 6 1 285.28 6.05
 6 6 -1 206.57 3.61
 6 -6 -1 272.97 4.91
 -6 6 1 239.76 5.78
 -6 -6 -1 263.04 5.98
 6 -6 1 258.71 4.48
 6 6 1 241.71 6.16
 6 6 -1 233.46 6.1
 -6 6 1 250.68 4.13
 -6 6 -1 259.14 5.51
 6 -6 1 257.29 7.23
 -6 6 -1 255.72 5.69
 -6 6 1 264.16 5.35
 6 6 1 236.18 5.59
 6 6 -1 258.53 5.23
 -6 6 -2 13.78 1.39
 6 -6 2 12.67 1.43
 -6 -6 2 13.79 1.16
 6 -6 2 13.3 1.6
 6 -6 -2 12.38 1.39
 -6 -6 -2 11.3 1.28
 6 -6 -2 11.69 1.35
 6 6 2 11.12 0.96
 -6 -6 2 13.26 0.89
 6 -6 2 13.29 1.49
 6 -6 2 12.26 1.17
 -6 6 -2 16.45 1.54
 -6 6 2 13.68 1.15
 -6 6 2 12.81 1.39
 -6 6 -2 14.05 1.45
 6 6 2 11.52 1.26
 6 6 -2 12.46 1.05
 6 6 -2 12.16 1.43
 6 6 2 13.99 1.47
 -6 -6 -2 12.37 1.37
 6 6 2 12.08 1.35
 6 -6 3 835.2 11.68
 6 6 -3 825.57 13.51
 6 -6 -3 902.84 12.88
 -6 -6 -3 876.93 11.66
 6 -6 -3 810.74 12.75
 6 6 3 768.59 9.27
 6 -6 3 913.74 12.55
 -6 -6 3 790.19 9.17
 6 6 3 891.03 11.44
 6 6 3 927.4 12.32
 6 6 3 848.82 11
 -6 6 3 852.34 11.58
 6 -6 -3 873.18 11.58
 -6 -6 -3 852.18 11.68
 -6 -6 3 881.86 12.5
 -6 6 -3 851.24 11.31
 6 6 -3 853.48 12.19
 -6 6 -3 940.07 12.09
 -6 6 4 7.77 1.16
 -6 6 -4 6.23 1.05
 -6 6 -4 6.28 1.04
 6 6 -4 6.05 1.16
 -6 -6 -4 6.8 1.1
 6 6 4 5.31 0.83
 -6 -6 4 5.71 0.92
 6 -6 -4 6.68 1.21
 -6 6 -4 6.64 1.04
 6 -6 4 7.27 1.19
 -6 -6 4 6.27 0.98
 6 -6 -4 6.86 1.2
 -6 -6 4 6.9 1.21
 6 6 4 6.54 1.07
 6 6 4 5.58 0.94
 6 -6 4 6.07 1.02
 -6 6 4 6.39 1.01
 -6 -6 -4 7.75 1.15
 6 -6 4 6.36 1.11
 6 -6 -5 1134.43 15.69
 -6 -6 -5 1215.29 15.27
 -6 -6 5 1274.51 14.73
 6 -6 -5 1148.58 16.04
 6 -6 5 1260.84 15.6
 6 6 5 1297.42 14.25
 6 6 5 1277.56 14.43
 6 -6 5 1173.1 15.57
 -6 6 5 1157.73 13.92
 -6 6 -5 1195.73 14.27
 6 6 -5 1301.71 16.54
 -6 6 -5 1247.85 14.9
 -6 -6 5 1252.24 17.12
 -6 -6 -5 1277.66 14.92
 -6 6 5 1087.47 14.76
 -6 6 5 1225.28 14.86
 -6 6 -5 1110.01 14.72
 6 6 -5 1137.19 17.06
 -6 6 6 2.38 0.79
 -6 -6 6 4.01 1.04
 6 -6 6 3.26 0.83
 6 6 6 3.47 0.78
 6 -6 6 3.06 0.79
 6 -6 -6 3.91 0.96
 -6 -6 -6 3.59 0.87
 -6 -6 6 3.83 0.86
 6 -6 6 3.34 0.85
 -6 6 6 2.65 0.72
 -6 -6 -6 3.09 0.73
 -6 6 -6 3.85 0.86
 -6 6 -7 40.08 2.72
 -6 -6 7 42.13 2.88
 6 6 7 41.69 2.57
 6 6 7 41.02 2.65
 -6 -6 -7 47.99 3.19
 6 -6 -7 42.66 3.12
 -6 6 -7 38.8 2.65
 6 -6 7 44.61 3.03
 -6 6 7 34.48 2.84
 6 -6 7 41.72 2.77
 6 6 8 0.27 0.25
 -6 -6 8 0.3 0.32
 -6 7 0 232.27 5.02
 6 7 0 248.21 5.41
 6 7 0 260.88 6.95
 6 -7 0 237.07 6.05
 -6 7 0 256.55 5.98
 6 -7 0 251.59 6.72
 -6 -7 0 224.49 4.6
 6 -7 0 245.84 6.67
 -6 7 0 236.05 5.86
 6 -7 0 218.39 4.34
 -6 -7 0 263.42 6.3
 6 -7 -1 17.1 1.77
 -6 -7 1 13.03 0.69
 6 -7 1 16.8 1.71
 -6 7 -1 22.4 1.83
 6 7 -1 16.59 1.2
 6 7 1 17.02 1.55
 -6 -7 -1 17.57 1.69
 6 -7 -1 17.33 1.68
 -6 7 -1 17.15 1.5
 -6 7 1 15.95 1.18
 -6 7 1 19.72 1.74
 -6 7 1 16.91 1.46
 -6 7 -1 15.35 1.52
 -6 -7 1 18.37 1.32
 6 -7 1 17.14 1.7
 6 7 1 18.26 1.73
 6 7 -1 17.03 1.68
 6 7 1 17.53 1.58
 6 7 -1 19.1 1.56
 -6 -7 -1 17.86 1.63
 -6 -7 1 16.58 1.62
 6 -7 2 1545.12 16.49
 -6 -7 2 1620.5 13.51
 6 -7 -2 1500.13 16.23
 -6 -7 -2 1506.36 15.64
 -6 -7 2 1571.94 10.08
 6 7 2 1589.57 15.78
 -6 7 -2 1572.7 15.26
 -6 7 -2 1548.44 15.2
 -6 7 2 1668.95 13.79
 -6 7 -2 1667.81 16.18
 -6 -7 -2 1637.37 16.17
 -6 -7 2 1525.65 16.07
 6 -7 -2 1707.31 15.65
 6 7 -2 1651.15 13.47
 6 7 2 1594.88 15.23
 6 -7 2 1618.67 14.07
 6 7 3 11.7 1.36
 -6 7 -3 10.32 1.3
 6 7 -3 9.91 1.38
 6 -7 3 12.09 1.6
 -6 -7 3 11.2 1.23
 6 -7 3 10.06 1.32
 6 -7 -3 10.66 1.43
 -6 -7 -3 12.87 1.5
 6 -7 -3 9.46 1.39
 6 -7 3 10.3 1.38
 -6 7 -3 9.65 1.25
 6 7 3 10.5 1.32
 -6 7 3 9.97 1.3
 -6 -7 -3 9.27 1.3
 6 7 3 9.11 1.2
 -6 -7 3 10.45 1.42
 6 7 3 9.48 1.1
 6 -7 -3 10.36 1.35
 -6 -7 -3 9.16 1.25
 -6 7 -3 10.25 1.32
 -6 -7 4 0.12 0.22
 6 -7 4 0.79 0.38
 6 -7 4 -0.04 0.22
 6 -7 -4 -0.04 0.21
 -6 7 4 0.03 0.18
 6 7 4 0.06 0.16
 -6 7 -4 0.03 0.15
 -6 -7 -4 0.22 0.22
 6 7 -4 0.31 0.27
 -6 7 -4 0.16 0.2
 6 -7 -4 0.19 0.3
 -6 -7 -4 0.62 0.36
 -6 -7 -4 0.03 0.13
 6 7 -4 0.04 0.22
 6 -7 -4 0.04 0.15
 6 7 4 0.15 0.19
 6 -7 4 0.07 0.19
 -6 7 4 0.16 0.21
 6 -7 5 19.55 1.91
 6 7 -5 24.14 2.41
 -6 -7 -5 20.62 2.03
 -6 -7 5 19.98 1.83
 6 -7 -5 19.71 2.14
 -6 7 5 19.18 2.01
 6 7 5 19.95 1.82
 6 -7 5 22.56 2.15
 6 7 5 21.44 1.94
 -6 7 -5 21.84 1.92
 -6 -7 -5 20.08 1.97
 -6 -7 5 25.49 2.43
 6 7 -5 20.88 2.16
 -6 7 -5 19.11 1.87
 -6 7 5 19.77 1.87
 -6 7 5 20.08 1.93
 -6 -7 -5 19.79 1.9
 6 -7 5 21.39 2.09
 6 7 -6 173.91 6.59
 -6 -7 -6 182.12 6.11
 -6 -7 6 164.92 5.49
 6 -7 -6 164.02 6.3
 -6 7 6 153.87 5.91
 6 7 6 164.36 5.14
 6 -7 6 175 5.95
 6 7 6 168.87 5.33
 -6 7 -6 157.74 5.2
 -6 -7 -6 183.75 6.1
 6 -7 6 161.31 5.58
 6 -7 6 152.03 6.06
 -6 7 -6 164.44 5.43
 6 7 -6 177.71 6.38
 -6 -7 -6 182.66 5.85
 -6 -7 6 155.17 6.23
 -6 7 6 175.05 5.75
 6 -7 7 5.24 1.05
 -6 7 7 4.75 1.08
 6 7 7 6 0.99
 6 7 7 5.08 0.94
 6 7 -7 5.09 1.16
 -6 7 -7 4.95 0.93
 -6 -7 -7 6.16 1.18
 6 -7 -7 7.64 1.31
 -6 -7 7 4.24 1.09
 -6 7 -7 5.78 1.03
 6 -7 -7 4.97 1.11
 -6 -7 7 5.47 1.04
 6 -7 7 4.43 0.93
 6 8 0 3.94 0.92
 -6 -8 0 4.31 0.72
 -6 8 0 5.42 0.81
 6 8 0 5.24 0.84
 6 -8 0 4.27 0.95
 6 8 0 4.73 0.85
 6 -8 0 4.82 0.72
 -6 8 0 3.91 0.78
 6 -8 -1 55.56 3.31
 6 8 1 56.44 2.96
 6 -8 1 60.19 3.32
 6 8 1 61.28 3.03
 -6 -8 -1 60.16 3.29
 6 -8 -1 52.81 3.09
 6 8 1 57.34 3.15
 6 8 -1 55.13 3.13
 -6 8 -1 49.35 2.77
 -6 8 1 58.47 2.47
 -6 8 -1 52.76 2.75
 -6 8 1 53 2.94
 6 -8 1 56.74 3.22
 -6 -8 1 69.56 2.88
 -6 -8 1 55.02 3.04
 -6 -8 -1 57.3 3.06
 6 -8 -1 53.1 2.66
 6 -8 1 54.52 2.45
 -6 8 1 60.53 2.97
 -6 8 -1 59.59 3.1
 6 -8 -2 35.78 2.61
 -6 -8 -2 37.48 2.55
 6 -8 -2 32.93 2.47
 6 8 -2 39.46 2.32
 6 -8 2 34.42 2.54
 6 8 2 42.44 2.63
 6 8 -2 36.25 2.64
 6 8 2 37.34 2.49
 -6 8 -2 34.29 2.39
 -6 8 2 37.79 2.27
 6 -8 -2 37.06 2.47
 -6 -8 2 40.05 2.25
 6 -8 2 36.13 2.57
 -6 8 -2 37.91 2.47
 -6 8 -2 32.27 2.3
 -6 -8 2 35.98 2.54
 6 -8 2 37.17 2.25
 -6 -8 -2 38.15 2.55
 -6 8 2 33.19 2.37
 -6 8 -3 1542.21 16.39
 -6 -8 -3 1548.09 16.74
 -6 -8 -3 1513.46 16.8
 6 -8 -3 1544.85 18.41
 6 8 3 1500.58 15.31
 6 -8 3 1696.13 18.14
 -6 8 3 1546.6 16.17
 6 8 3 1562.88 16.53
 6 -8 -3 1626.22 18.04
 6 -8 3 1581.65 17.11
 -6 -8 3 1703.99 15.66
 -6 8 -3 1512.78 16.18
 6 -8 3 1504.03 16.41
 -6 -8 -3 1566.11 16.7
 -6 -8 3 1595.86 17.64
 6 8 -3 1604.41 18.12
 6 8 3 1568.74 15.87
 6 -8 3 1477.06 18.04
 -6 8 -3 1558.45 16.32
 6 -8 -4 8.33 1.36
 -6 -8 -4 7.41 1.2
 6 -8 4 7.98 1.34
 -6 -8 -4 8.23 1.26
 6 -8 -4 8.09 1.38
 6 -8 4 7.64 1.25
 -6 8 -4 7.91 1.17
 6 8 -4 9.48 1.43
 -6 8 4 8.06 1.22
 -6 8 4 7.33 1.15
 -6 8 -4 7.38 1.19
 6 8 -4 7.52 1.41
 6 8 4 8.82 1.22
 -6 -8 4 8.29 1.36
 6 -8 4 6.86 1.21
 6 8 4 7.38 1.13
 6 -8 4 8.18 1.28
 -6 -8 4 8.56 1.18
 -6 -8 -5 622.67 11.07
 6 -8 -5 615 12.01
 -6 -8 -5 643.17 10.73
 -6 -8 5 645.85 10.68
 6 -8 5 590.05 10.78
 -6 -8 -5 623.77 10.91
 -6 8 -5 634.82 10.87
 -6 -8 5 621.82 12.24
 6 8 -5 651.62 12.13
 -6 8 -5 613.39 10.58
 6 8 -5 640.4 12.74
 6 -8 5 640.69 12.26
 -6 8 5 584.82 10.41
 -6 8 5 588.43 10.48
 -6 -8 6 4.22 0.91
 -6 -8 -6 5.02 0.98
 6 -8 -6 5.11 1.13
 6 -8 6 5.8 1.12
 6 -8 -6 4.65 1.07
 -6 -8 -6 4.83 1.01
 6 8 6 5.46 1.01
 -6 8 6 5.45 1.04
 6 -8 6 4.46 0.95
 -6 -8 -6 5.48 1.08
 -6 8 -6 4.96 0.99
 -6 8 6 4.57 1.06
 6 8 -6 4.68 1.11
 -6 -8 6 5.92 1.22
 -6 8 7 44.76 2.92
 6 8 7 42.7 2.6
 -6 -8 -7 45.73 3.05
 6 -8 -7 46.84 3.3
 -6 -8 -7 51.46 3.31
 6 8 -7 45.48 3.38
 6 -8 7 45.96 3.03
 -6 8 -7 41.7 2.74
 -6 -8 7 42.06 3.29
 6 9 0 1068.42 15.19
 -6 9 0 1135.83 13.91
 -6 9 0 1133.3 13.79
 6 9 0 1167.56 13.87
 6 9 0 1283.81 13.93
 6 -9 0 1096.32 15.21
 6 -9 0 1011.62 14.23
 6 -9 0 1048.43 11.65
 -6 -9 0 1161.45 14.38
 6 -9 0 1146.94 15.49
 6 -9 1 1.19 0.53
 -6 -9 1 0.79 0.37
 6 -9 1 1.53 0.58
 6 -9 -1 1.51 0.62
 6 9 1 2.03 0.62
 6 -9 1 1.53 0.47
 -6 -9 1 1.35 0.53
 -6 -9 -1 1.76 0.58
 -6 9 -1 1.29 0.49
 6 9 -1 1.5 0.52
 6 9 1 1.75 0.57
 6 9 -1 1.15 0.44
 6 -9 -1 1.98 0.65
 -6 -9 -1 2.05 0.65
 -6 9 1 1.22 0.46
 -6 9 -1 1.36 0.53
 -6 9 -1 1.84 0.56
 6 9 1 1.81 0.55
 -6 9 1 1.35 0.52
 6 -9 -2 599.64 10.66
 6 -9 2 679.24 11.56
 -6 -9 2 712.48 10.03
 6 -9 2 657.91 11.33
 -6 9 2 614.34 10.31
 6 -9 -2 642.69 11.72
 -6 -9 -2 647.36 11.19
 6 9 2 660.19 10.56
 6 9 -2 672.53 11.62
 -6 9 -2 598.02 10.15
 -6 -9 -2 712.08 11.4
 -6 -9 2 718.76 11.63
 -6 9 2 682.32 10.23
 -6 9 -2 682.47 11.03
 6 9 2 667.07 10.59
 -6 -9 3 1.97 0.66
 -6 -9 -3 2.06 0.64
 6 9 3 1.62 0.53
 -6 9 3 1.85 0.59
 -6 9 -3 1.33 0.52
 -6 9 -3 4.27 0.9
 6 9 3 2.06 0.62
 6 -9 -3 1.94 0.68
 6 -9 3 1.63 0.6
 -6 -9 -3 2.14 0.66
 6 -9 -3 2.22 0.71
 -6 9 -3 1.76 0.58
 6 -9 3 1.75 0.6
 -6 -9 3 1.42 0.49
 -6 -9 4 0.92 0.44
 6 -9 4 0.3 0.29
 -6 -9 4 0.67 0.47
 -6 -9 -4 0.48 0.35
 -6 -9 -4 0.55 0.36
 -6 9 4 0.66 0.36
 6 9 4 0.44 0.31
 6 9 4 0.6 0.36
 6 9 -4 0.49 0.36
 -6 9 -4 0.46 0.32
 6 9 4 0.62 0.35
 -6 9 -4 1.82 0.59
 -6 -9 -4 0.54 0.38
 6 -9 4 0.71 0.41
 6 -9 -4 0.35 0.38
 6 -9 5 9.63 1.46
 6 9 -5 12.48 1.83
 -6 -9 -5 10.43 1.47
 6 -9 -5 10.31 1.56
 -6 9 -5 8.97 1.36
 6 -9 -5 10.91 1.64
 -6 -9 5 10.87 1.65
 6 -9 5 10.85 1.53
 6 9 5 9.41 1.35
 -6 -9 -5 9.58 1.4
 -6 9 -5 9.03 1.31
 6 -9 5 8.23 1.43
 -6 9 5 9.03 1.34
 -6 9 5 10.32 1.41
 -6 -9 -5 10.77 1.44
 6 9 5 9.3 1.24
 -6 9 -5 9.6 1.36
 6 9 -5 9.71 1.52
 -6 -9 6 226.14 7.42
 6 -9 -6 220.28 7.26
 6 -9 6 238.35 7.15
 -6 9 -6 210.1 6.28
 6 9 6 211.69 6.22
 6 -9 6 214.25 6.57
 -6 -9 -6 241.54 6.93
 -6 9 -6 212.92 6.33
 6 9 -6 232.38 7.51
 -6 -9 -6 221.8 6.58
 6 -9 -6 217.94 7.17
 -6 -9 -6 216.29 6.74
 -6 9 6 208.32 6.72
 6 9 6 214.45 5.83
 6 9 -6 203.02 7.44
 -6 9 6 212.88 6.41
 -6 -9 -7 0.16 0.22
 -6 9 7 0.04 0.19
 -6 -10 0 3.8 0.88
 6 -10 0 3.62 0.89
 6 10 0 4.65 0.92
 6 -10 0 3.65 0.91
 6 -10 0 4.6 1.04
 -6 10 0 4.07 0.87
 -6 10 0 4.45 0.93
 -6 10 0 6.39 1.01
 6 10 -1 177.9 5.65
 6 10 1 167.26 5.43
 6 10 1 164.36 5.4
 -6 10 -1 163.69 5.4
 -6 -10 -1 163.3 5.93
 -6 10 -1 163.01 5.17
 -6 10 -1 160.37 5.47
 -6 10 1 171.49 5.57
 6 -10 2 0.16 0.28
 6 -10 -2 0.26 0.3
 6 -10 2 0.04 0.24
 -6 10 2 0.07 0.17
 6 10 2 0.62 0.36
 -6 -10 -2 0.15 0.21
 6 -10 -2 0.08 0.21
 -6 -10 2 0.23 0.29
 -6 -10 -2 0.04 0.26
 6 10 2 0.13 0.2
 -6 10 -2 0.04 0.16
 6 10 -2 0.12 0.23
 -6 -10 -3 193.08 6.22
 6 -10 -3 186.98 6.75
 6 -10 3 215.76 6.75
 -6 10 3 201.73 6.1
 -6 10 3 191.65 6.01
 6 10 3 202.71 5.97
 6 10 3 197.43 5.89
 6 -10 -3 212.9 6.98
 -6 10 -3 202.6 6.27
 -6 10 -3 196.58 5.97
 6 -10 3 204.61 6.58
 -6 -10 3 192.73 6.42
 -6 -10 -3 206.18 6.35
 6 -10 4 0.4 0.36
 6 -10 4 0.49 0.39
 6 -10 -4 0.49 0.39
 -6 10 4 0.92 0.45
 6 10 4 0.8 0.42
 -6 10 -4 0.72 0.39
 -6 10 -4 0.37 0.3
 6 10 -4 1.15 0.53
 6 10 4 0.54 0.33
 -6 10 4 0.58 0.36
 6 10 4 0.51 0.32
 -6 -10 -4 0.65 0.39
 6 -10 -4 0.23 0.27
 -6 -10 -4 0.85 0.45
 -6 -10 4 0.95 0.56
 -6 -10 -4 0.79 0.46
 6 -10 -5 795.01 13.89
 -6 -10 -5 757.8 12.33
 6 -10 5 824.99 13.2
 -6 10 -5 767.37 12.25
 6 10 5 712.96 11.38
 -6 10 5 736.76 11.78
 6 -10 -5 782.24 13.66
 -6 -10 -5 766.2 12.55
 -6 10 -5 743.88 12.03
 6 10 -5 816.69 13.8
 6 10 5 760.63 11.3
 -6 -10 -5 790.94 12.69
 -6 -10 5 756.86 13.63
 -6 10 -5 717.5 12.06
 6 -10 6 10.02 1.51
 -6 10 6 10.48 1.46
 -6 10 -6 11.74 1.51
 -6 10 6 10.26 1.43
 6 10 6 8.81 1.22
 6 10 6 12.15 1.47
 6 -10 -6 10.84 1.65
 -6 -10 -6 10.92 1.5
 6 -10 -6 9.62 1.52
 -6 -10 -6 10.8 1.52
 -6 -10 6 10.04 1.61
 -6 10 -6 11.39 1.5
 6 10 -6 10.95 1.64
 6 -10 6 10.29 1.48
 -6 11 0 1220.19 15.19
 -6 11 0 1280.26 15.89
 6 -11 0 1207.22 17.18
 -6 -11 0 1279.56 16.06
 6 11 0 1268.63 16.47
 6 -11 0 1255.89 16.7
 6 11 0 1293.59 15.63
 6 11 -1 48.92 3.16
 6 11 1 52.37 3.19
 -6 11 -1 52.83 3.27
 -6 11 1 51.9 3.16
 -6 -11 -1 51.44 3.42
 6 -11 1 46.34 3.15
 6 -11 -1 45.28 3.18
 -6 11 -1 49.36 3.06
 -6 11 1 43.46 2.91
 -6 -11 -1 55.32 3.33
 -6 -11 1 49.6 3.18
 6 -11 -1 53.56 3.52
 6 -11 1 55.37 3.51
 6 -11 1 47.8 3.34
 -6 11 -1 49.32 2.98
 6 -11 -2 335.33 8.58
 6 -11 2 421.52 9.56
 -6 -11 2 394.97 9.06
 -6 -11 -2 423.42 9.31
 -6 11 2 371.53 8.48
 -6 11 -2 379.42 8.43
 -6 11 -2 393.19 8.87
 6 -11 -2 384.73 9.48
 -6 -11 -2 389.97 9.22
 6 -11 2 406.78 9.47
 6 11 2 419.34 8.84
 -6 11 -2 380.21 8.46
 6 11 2 401.81 8.88
 6 11 -2 394.21 9.12
 6 11 2 395.03 8.37
 -6 -11 3 0.46 0.4
 -6 -11 -3 0.55 0.39
 6 11 3 0.67 0.37
 -6 11 -3 0.77 0.44
 6 -11 -3 0.72 0.49
 -6 11 -3 0.78 0.4
 -6 11 3 0.87 0.44
 6 11 3 0.58 0.35
 -6 11 3 0.33 0.3
 6 -11 3 0.5 0.41
 -6 -11 -3 0.52 0.36
 6 -11 -3 0.87 0.49
 -6 -11 -4 1.19 0.53
 -6 11 -4 0.76 0.44
 -6 -11 -4 0.72 0.41
 6 -11 -4 0.5 0.4
 6 -11 4 1.1 0.54
 -6 11 4 0.57 0.39
 -6 11 -4 0.48 0.33
 6 11 4 0.47 0.35
 6 11 -4 0.89 0.49
 6 11 4 0.58 0.35
 -6 11 -4 0.91 0.46
 -6 11 4 0.59 0.39
 6 11 4 0.71 0.39
 -6 -11 4 0.57 0.42
 -6 -11 -4 0.43 0.36
 6 -11 4 1.01 0.53
 6 -11 -5 0.38 0.37
 6 -11 -5 1.62 0.69
 -6 -11 5 0.63 0.45
 -6 -11 -5 0.78 0.47
 -6 11 -5 0.6 0.38
 -6 -11 -5 0.93 0.46
 -6 11 5 0.43 0.37
 6 11 5 0.35 0.27
 6 -11 5 0.57 0.42
 -6 11 -5 0.38 0.31
 6 11 -5 0.75 0.46
 6 11 5 0.57 0.33
 -6 11 5 0.76 0.46
 -6 -11 -6 134 5.35
 6 -11 -6 137.25 5.74
 6 -12 0 2.16 0.77
 6 -12 0 1.41 0.61
 -6 12 0 1.92 0.64
 -6 12 -1 96.63 4.61
 6 12 -1 90.03 4.42
 -6 -12 -1 95.86 4.71
 6 12 1 94.69 4.24
 6 -12 1 98.42 4.88
 -6 12 -1 104.5 4.48
 -6 -12 -1 94.82 4.46
 -6 -12 1 101.73 4.59
 -6 12 2 18.4 1.94
 -6 12 -2 20.54 2.01
 6 -12 2 22.51 2.3
 6 12 2 19.85 1.91
 6 12 -2 20.05 2.09
 6 -12 -2 21.27 2.25
 6 -12 -2 22.25 2.43
 -6 -12 2 21.52 2.13
 -6 -12 -2 20.76 2.11
 -6 12 -2 19.93 2.01
 6 -12 -3 432.19 10.46
 6 12 3 424.52 8.95
 6 -12 3 461.84 10.11
 6 -12 3 440.48 10.12
 -6 12 3 387.82 8.97
 6 12 -3 420.17 9.76
 6 12 3 401.13 8.47
 -6 12 3 438.63 9.16
 6 -12 -3 400.98 9.93
 6 12 3 448.35 9.39
 -6 -12 -3 432.6 9.75
 -6 -12 -3 447.23 9.79
 -6 -12 3 459.71 10.16
 -6 -12 -4 6.48 1.2
 6 -12 -4 7.03 1.34
 6 -12 4 7.31 1.31
 -6 12 -4 7.42 1.26
 6 12 4 6.48 1.12
 6 -12 -4 8.01 1.43
 -6 -12 4 8.95 1.55
 -6 12 4 7.27 1.19
 -6 12 4 6.76 1.19
 -6 12 -4 7.5 1.27
 6 12 4 7.12 1.12
 6 12 -4 7.07 1.33
 6 12 4 6.69 1.08
 -6 -12 -4 6.16 1.16
 6 -12 4 6.72 1.28
 -6 -12 -5 147.23 5.36
 6 12 5 143.68 5.25
 -6 -12 -5 148.52 5.62
 -6 12 5 143.99 5.41
 6 12 -5 151.66 6.1
 -6 12 -5 156.94 5.65
 6 13 0 319.03 8.27
 6 -13 0 313.25 8.88
 -6 -13 0 323.3 8.35
 6 -13 0 301.13 8.5
 -6 13 0 271.9 7.3
 -6 -13 0 315.48 8.92
 -6 13 0 289.37 8.52
 6 13 -1 14.72 1.81
 -6 13 -1 15.59 1.87
 -6 -13 -1 16.21 1.88
 -6 -13 1 15.78 1.83
 -6 -13 -1 16.96 2.03
 6 -13 1 15.7 2.04
 6 -13 1 16.95 2.01
 6 -13 -1 17.25 2.07
 -6 13 -1 12.58 1.62
 6 13 2 467.58 9.64
 -6 13 -2 424.27 9.22
 -6 -13 -2 456.43 10.17
 6 -13 -2 437.91 10.54
 6 13 2 403.56 8.62
 -6 13 2 403.05 9.12
 6 -13 2 483.04 10.7
 -6 13 -2 444.32 9.91
 -6 13 -3 0.89 0.45
 6 13 -3 1.58 0.61
 -6 13 -3 0.45 0.39
 -6 13 3 0.71 0.39
 -6 13 -3 0.41 0.37
 6 -13 3 0.81 0.49
 -6 -13 -3 0.29 0.36
 -6 -13 3 0.42 0.37
 6 -13 -3 0.24 0.32
 6 13 3 0.28 0.26
 -6 13 3 0.31 0.33
 6 -13 3 0.22 0.34
 6 -13 -3 0.48 0.44
 -6 13 4 0.99 0.48
 -6 -13 -4 0.56 0.41
 6 -13 4 1.04 0.53
 -6 -13 -4 0.96 0.49
 6 13 4 0.88 0.42
 -6 13 -4 0.76 0.42
 6 13 4 1.17 0.49
 6 14 0 0.73 0.45
 6 -14 0 1.27 0.61
 -6 -14 0 0.37 0.37
 -6 -14 0 0.56 0.42
 -6 14 0 1.02 0.48
 -6 14 -1 39.8 3.05
 6 14 -1 36.39 2.83
 6 14 1 43.23 2.94
 -6 14 1 40.65 2.9
 -6 -14 1 42.73 3.16
 -6 -14 -1 43.2 3.08
 6 -14 -1 43.49 3.31
 6 -14 1 48.19 3.47
 6 -14 1 42.33 3.37
 -6 -14 -1 45.26 3.41
 6 14 1 44.53 3.02
 -6 -14 -2 5.3 1.16
 -6 -14 2 5.52 1.13
 -6 -14 -2 4.46 1.03
 6 14 2 5.04 0.97
 6 14 -2 3.23 0.87
 -6 14 2 4.46 0.98
 -6 14 2 4.32 1.02
 -6 14 -2 4.55 1.03
 6 -14 2 4.52 1.09
 6 -14 -2 5.17 1.2
 6 14 2 4.06 0.92
 6 -14 2 4.55 1.1
 -6 -14 -3 212.24 7.12
 6 -14 3 222.85 7.22
 -6 15 0 283.27 7.67
 6 -15 0 325.16 9.03
 -6 15 -1 5.09 1.04
 -6 15 -1 5.08 1.15
 7 0 0 0.01 0.09
 -7 0 0 0.17 0.16
 7 0 0 0.18 0.18
 -7 0 1 985.98 9.36
 -7 0 1 915.38 8.95
 -7 0 -1 926.38 7.78
 7 0 -1 847.13 8.53
 7 0 -1 935.27 9.42
 7 0 1 966.46 11.06
 7 0 1 955.23 7.55
 -7 0 -1 929.09 10.49
 7 0 -1 908.48 8.97
 7 0 -1 968.82 8.34
 -7 0 1 960.65 7.15
 7 0 -2 258.24 5.48
 -7 0 2 241.41 5.73
 7 0 2 261.68 5.1
 7 0 -2 246.24 5.33
 -7 0 2 245.32 4.14
 -7 0 2 271.77 4.88
 -7 0 -2 251.88 3.86
 7 0 2 258.87 6.01
 7 0 -2 257.83 4.46
 -7 0 -2 261.96 5.73
 7 0 -2 253.98 4.23
 7 0 2 250.99 4.13
 -7 0 -3 71.3 3.01
 7 0 -3 75.57 3.36
 7 0 3 78.99 2.71
 7 0 -3 57.22 2.14
 7 0 3 75.96 3.13
 -7 0 3 65.28 3.31
 7 0 -3 71.23 3.28
 -7 0 3 61.8 1.57
 -7 0 -3 76.12 3.22
 -7 0 -3 74.81 2.81
 7 0 3 70.59 3.32
 7 0 -4 533.82 6.86
 -7 0 -4 551.16 9.52
 -7 0 -4 554.1 8.81
 7 0 4 539.26 7.92
 -7 0 4 528.65 9.77
 -7 0 4 543.3 7.67
 7 0 -4 524.46 9.78
 -7 0 -5 61.46 3.1
 -7 0 5 60.1 3.42
 7 0 5 57.81 2.88
 -7 0 -5 66.94 3.43
 7 0 -5 56.31 3.42
 7 0 5 67.04 3.46
 7 0 5 60.61 3.26
 -7 0 -6 48.07 2.77
 7 0 6 46.11 2.7
 -7 0 6 47.88 3.11
 7 0 6 50.75 3.15
 7 0 -6 45.16 3.17
 -7 0 -6 50.08 3.24
 7 0 6 56.16 3.28
 7 0 7 152.96 5.56
 -7 0 7 136 5.28
 7 0 7 152.6 5.52
 -7 0 -7 140.89 4.78
 7 0 -7 147.73 5.8
 -7 0 -7 154.7 5.22
 -7 0 -7 137.87 5.61
 -7 0 -8 0.03 0.15
 7 0 8 0.04 0.23
 -7 0 8 0.37 0.34
 -7 -1 0 0.06 0.15
 -7 1 0 0.09 0.16
 7 1 0 0.25 0.15
 7 -1 0 0.64 0.27
 7 1 0 0.3 0.19
 7 1 0 0.59 0.26
 -7 -1 0 0.11 0.11
 -7 1 0 0.2 0.09
 7 -1 1 507.01 6.99
 7 1 1 498.77 5.83
 -7 -1 1 466.79 6.56
 7 -1 -1 495.99 5.79
 7 1 -1 524.38 6.35
 -7 -1 -1 503.82 8.02
 -7 1 -1 446.88 4.76
 -7 -1 -1 498.97 6.26
 -7 1 1 505.46 4.25
 -7 -1 1 490.62 5.89
 7 -1 -1 452.85 6.79
 7 1 -1 470.5 6.11
 -7 1 -1 537.24 8.06
 -7 1 1 408.03 6.11
 7 -1 1 499.21 7.97
 7 1 1 522.86 7.89
 7 -1 -1 495.42 7.23
 7 -1 1 483.27 6.24
 -7 -1 1 518.7 6.24
 -7 1 1 531.92 7.08
 -7 -1 -1 414.06 4.3
 -7 -1 -2 954.98 8.16
 -7 -1 2 972.45 8.07
 -7 1 2 984.19 9.73
 7 -1 -2 1019.47 11.38
 -7 1 2 1004 11.28
 -7 -1 2 1071.9 11.14
 7 1 2 982.03 9.74
 7 -1 2 999.86 10.55
 -7 -1 2 953.21 8.81
 7 1 -2 934.74 9.51
 7 -1 -2 937.25 6.71
 -7 -1 -2 999.51 10.23
 -7 1 -2 979.77 9.56
 7 1 2 942.24 7.24
 7 1 -2 1034.98 11.3
 -7 1 -2 1023.8 6.78
 -7 -1 2 1000.48 9.94
 -7 -1 -2 1055.28 11.55
 -7 1 2 904.35 7.42
 -7 1 -2 1059.55 11.64
 7 1 2 1117.82 12.13
 7 -1 2 1011.05 12.08
 7 1 -2 1016.49 8.18
 -7 -1 3 531.27 8.8
 7 1 -3 472.65 8.13
 7 -1 -3 468.65 8.6
 7 -1 3 468.45 6.82
 7 -1 3 499.85 8.28
 7 1 3 509.88 8.09
 -7 -1 -3 491.5 8.16
 -7 1 -3 471.11 7.89
 -7 -1 3 450.58 5.67
 -7 1 3 488.59 7.16
 -7 -1 3 450.84 5.66
 7 -1 3 468.54 8.73
 -7 1 -3 473.32 6.65
 7 -1 -3 442.87 8.16
 7 1 -3 510.25 8.9
 7 1 3 498.46 8.97
 -7 -1 -3 499.64 8.23
 -7 1 -3 506.41 8.47
 7 -1 -4 542.14 10.22
 7 1 4 507.58 9.34
 -7 1 4 512.53 10.06
 7 -1 4 596.43 9.7
 7 1 4 605.56 9.72
 -7 -1 4 505.17 6.74
 -7 1 4 562.23 8.18
 -7 -1 -4 671.54 9.53
 -7 1 4 516.89 6.31
 -7 -1 -4 604.74 9.82
 -7 1 -4 557.79 9.8
 7 1 -4 580.16 7.91
 -7 1 -4 585.31 8.95
 7 1 -4 539.13 9.81
 7 -1 -4 553.78 9.98
 -7 1 -4 549.37 8.97
 7 1 4 605.32 8.34
 -7 -1 4 555.33 9.79
 -7 -1 -5 261.27 6.4
 -7 1 -5 248.22 6.15
 -7 -1 -5 274.58 6.77
 7 -1 -5 258.04 7.29
 7 1 -5 237.27 6.89
 -7 1 -5 267.82 6.73
 7 -1 5 245.05 5.82
 -7 -1 5 263.26 7.12
 -7 1 5 247.75 6.99
 7 1 5 247.02 5.86
 7 -1 5 275.07 6.97
 7 1 5 275.64 7.1
 7 1 5 239.84 6.54
 -7 1 -5 229.94 6.66
 -7 -1 -5 244.06 6.72
 7 1 5 233 6.35
 7 -1 5 264.81 6.94
 7 -1 6 196.67 6.2
 7 1 6 210.67 6.22
 -7 1 -6 193.57 6.47
 -7 1 -6 199.74 5.6
 -7 -1 -6 213.83 6.05
 7 1 6 197.96 5.93
 7 -1 6 222.56 6.64
 -7 1 -6 208.76 6.01
 -7 1 6 190.86 6.27
 7 -1 6 186.35 5.46
 7 1 6 180.76 5.4
 7 1 -6 189.7 6.41
 7 -1 -6 194.76 6.81
 -7 -1 -6 206.76 6.24
 -7 1 -7 219.72 6.28
 7 -1 7 194.28 5.79
 -7 1 7 192.05 6.33
 -7 -1 7 207.44 6.59
 7 -1 7 232.53 6.98
 7 -1 7 205.92 6.4
 7 1 -7 195.27 6.62
 7 -1 -7 197.51 6.77
 7 1 7 216.53 6.29
 -7 1 -7 209.09 5.91
 -7 1 8 0.41 0.37
 -7 -1 8 0.19 0.28
 -7 -1 -8 0.24 0.33
 7 -1 -8 0.04 0.17
 7 1 -8 0.09 0.22
 -7 1 -8 0.06 0.17
 7 1 8 0.11 0.24
 7 -1 8 0.18 0.25
 -7 1 -8 0.03 0.12
 -7 -1 -8 0.03 0.16
 7 -2 0 0.13 0.15
 7 2 0 0.22 0.13
 7 2 0 0.02 0.11
 -7 -2 0 0.13 0.17
 -7 2 0 0.06 0.12
 7 2 0 0.27 0.18
 -7 2 0 0.02 0.1
 -7 -2 -1 314.49 4.52
 7 -2 -1 315.55 6.02
 7 2 -1 309.37 4.32
 -7 2 1 331.8 5.11
 7 -2 1 340.49 6.07
 7 2 1 324.17 4.23
 7 -2 1 324.45 6.55
 7 -2 -1 325.64 6.24
 -7 -2 1 338.26 6.15
 -7 -2 -1 336.41 6.66
 7 2 -1 329.2 5.92
 -7 -2 1 337.79 5.51
 -7 2 1 308.15 2.43
 -7 -2 -1 346.42 5.55
 7 -2 -1 286.45 4.63
 -7 2 1 348 6.06
 -7 -2 1 316.23 4.44
 7 2 1 338.08 6.17
 7 2 -1 313.98 6.17
 7 2 1 338.13 6.44
 -7 2 -2 855.33 6.29
 7 2 -2 853.68 10.69
 -7 -2 -2 771.02 8.18
 7 2 -2 824.5 7.04
 7 -2 2 860.17 11.11
 -7 -2 -2 863.93 9.86
 -7 -2 -2 831.48 10.64
 7 -2 2 810.12 9.87
 -7 -2 2 802.25 6.35
 -7 2 2 846.09 9.5
 -7 -2 2 837.06 9.61
 7 -2 2 769.27 8.64
 7 2 2 845.79 6.02
 7 2 -2 785.84 9.32
 7 2 2 814.04 10.01
 7 -2 -2 794.09 10.58
 -7 2 -2 829.53 10.22
 -7 2 2 735.83 5.94
 7 2 -3 172.28 5.3
 -7 2 -3 172.4 3.97
 7 -2 -3 168.26 5.05
 -7 -2 -3 158.23 4.22
 -7 -2 3 171.53 4.82
 7 2 3 158.72 3.64
 7 -2 -3 163.95 5.22
 -7 2 3 153.95 4.93
 -7 2 3 164.63 4.33
 -7 -2 3 128.23 2.54
 7 -2 3 168.86 4.89
 7 2 3 186.97 4.8
 -7 2 -3 169.74 4.67
 7 2 3 154.96 4.92
 -7 -2 3 114.87 2.1
 7 2 3 148.72 4.55
 -7 -2 -3 173.19 5.01
 -7 2 -3 160.26 4.77
 -7 -2 3 164.97 5.01
 7 -2 3 158.4 4.25
 7 -2 3 166.67 5.22
 7 2 -3 160.57 4.25
 7 2 -4 356.65 8.28
 -7 2 -4 360.74 6.93
 -7 -2 -4 385.61 7.46
 7 -2 -4 349.97 7.96
 -7 -2 4 370.01 7.8
 7 2 4 361.65 6.39
 7 -2 -4 334 7.98
 -7 2 4 339.97 5.79
 -7 2 4 309.34 8.06
 7 -2 4 359.17 7.66
 7 2 4 418.12 7.97
 7 2 -4 358.23 6.76
 7 2 4 359.81 7.68
 7 -2 4 349.78 6.86
 7 2 4 378.72 7.47
 -7 2 -4 334.53 7.1
 -7 -2 -4 361.33 7.29
 -7 -2 -4 348.03 7.58
 -7 2 4 339.29 6.6
 -7 2 -4 344.88 7.49
 7 -2 -5 31.8 2.67
 -7 2 5 32.95 2.61
 -7 2 -5 34.72 2.33
 -7 -2 -5 35.29 2.59
 7 2 5 35.95 2.49
 7 2 5 36.36 2.55
 7 -2 5 37.75 2.61
 7 2 5 34.98 2.2
 7 -2 5 37.71 2.38
 -7 -2 5 34.79 2.53
 7 -2 5 38.36 2.67
 -7 2 -5 35.34 2.43
 7 2 5 34.13 2.35
 7 -2 -5 32.28 2.61
 -7 -2 -5 34.47 2.42
 -7 2 5 36.34 2.33
 -7 2 -5 35.77 2.39
 7 2 -5 33.4 2.68
 7 -2 6 176.48 5.87
 7 2 6 165.58 5.46
 7 2 6 175.5 5.54
 -7 -2 -6 167.95 5.67
 7 -2 6 182.63 6.15
 7 2 -6 165.38 6.1
 7 -2 -6 176.06 6.51
 7 -2 6 170.7 5.28
 -7 2 6 160.65 6.02
 -7 2 -6 178.03 5.65
 -7 -2 -6 177.98 6.03
 -7 -2 -6 176.78 5.36
 -7 2 -6 157.96 5.08
 -7 2 -7 375.57 7.85
 -7 -2 -7 389.78 8.11
 -7 2 -7 373.76 7.98
 7 -2 7 383.64 8.73
 7 2 7 408 8.56
 -7 2 7 326.76 8.57
 7 -2 7 348.73 7.7
 -7 -2 7 371.57 8.71
 7 -2 -7 381.64 9.44
 7 2 -7 380.64 9.43
 7 2 7 370.22 8.3
 7 -2 7 396.16 9.15
 -7 -2 -7 404.48 9.35
 7 -2 8 2.52 0.76
 7 2 8 2.44 0.69
 -7 -2 8 2.5 0.73
 7 2 8 1.99 0.66
 -7 -2 -8 1.98 0.61
 -7 2 -8 1.85 0.58
 7 -2 -8 2.61 0.79
 7 2 -8 1.85 0.69
 -7 2 8 2.16 0.73
 -7 -2 -8 2.26 0.72
 7 2 8 2.47 0.68
 -7 2 -8 2.6 0.67
 7 -3 0 0.07 0.16
 7 -3 0 0.1 0.17
 7 -3 0 -0.02 0.15
 -7 3 0 -0.02 0.11
 -7 -3 0 0.07 0.15
 -7 3 0 0.02 0.08
 -7 -3 0 0.02 0.12
 -7 3 0 -0.02 0.08
 7 3 0 0.12 0.15
 7 -3 1 374.35 3.33
 -7 3 -1 358.09 6.41
 -7 3 1 350.79 4.18
 7 -3 1 275.7 3.09
 7 -3 -1 365.82 5.59
 7 -3 1 287.65 3.12
 -7 -3 -1 333.01 5.39
 -7 -3 1 350.36 4.14
 7 -3 -1 365.98 6.94
 -7 -3 -1 349.39 6.13
 -7 -3 1 335.7 5.96
 7 3 1 328.36 6.27
 7 -3 1 353.17 6.6
 7 3 1 348.2 3.89
 -7 -3 1 348.56 2.89
 7 -3 1 350.51 7.17
 7 -3 -1 302.58 6.45
 -7 3 1 356.71 6.39
 7 -3 1 331.23 6.26
 -7 3 -1 342.89 6.32
 -7 3 1 354.43 5.22
 7 3 -1 371.47 6.99
 7 3 2 1001.98 12.48
 -7 -3 2 1060.8 11.24
 -7 3 -2 999.49 11.53
 7 3 -2 1001.83 11.59
 7 -3 -2 992.41 11.25
 -7 -3 -2 1025.47 10.15
 7 3 2 1018.51 5.94
 -7 3 2 1035.67 6.98
 7 -3 2 985.29 11.48
 7 3 2 1017.89 9.13
 -7 3 -2 1062.48 11.74
 -7 -3 -2 994.62 11.1
 -7 -3 2 945.51 5.76
 -7 3 2 1014.95 11.04
 7 3 2 958.42 11.05
 -7 -3 -2 1080.38 12.29
 7 3 -2 1030.55 11.23
 7 3 -2 958.62 7.79
 7 -3 2 984.01 12.32
 7 -3 2 969.8 10.36
 7 3 3 93.27 2.73
 -7 -3 3 90.46 3.33
 7 -3 -3 92.25 4
 7 -3 3 88.54 3.92
 -7 -3 -3 92.51 3.7
 7 3 3 96.05 3.81
 7 -3 3 88.15 3.68
 7 3 3 102.42 3.55
 -7 -3 3 85.52 3.72
 -7 -3 -3 92.96 3.77
 7 3 -3 90.76 3.46
 -7 3 -3 88.35 3.53
 -7 -3 -3 86.79 3.31
 7 -3 -3 95.97 3.86
 7 3 3 91.68 3.66
 7 3 -3 94.68 4.07
 -7 3 -4 317.99 7.29
 7 3 -4 343.5 8.34
 -7 3 -4 346.98 6.78
 -7 -3 -4 329.32 7.06
 7 -3 -4 331.63 7.91
 7 3 4 349.98 6.09
 -7 -3 4 338.36 7.17
 7 -3 -4 328.87 8.02
 7 3 4 323.53 6.91
 7 -3 4 351.33 7.7
 7 3 4 355.68 7.33
 -7 -3 -4 355.19 7.75
 7 3 4 340.06 7.56
 -7 3 -4 325.75 6.97
 -7 -3 -4 338.35 7.21
 -7 3 4 346.16 7.05
 -7 -3 4 336.74 8.09
 7 -3 4 310.16 6.75
 7 -3 4 338.47 7.86
 -7 3 4 303.71 5.93
 -7 -3 -5 39.06 2.63
 7 -3 -5 36.45 2.78
 7 3 5 35.93 2.15
 -7 -3 5 34.22 2.43
 7 -3 -5 37.4 2.85
 -7 -3 -5 36.38 2.4
 -7 3 -5 34.82 2.33
 -7 3 5 35.16 2.42
 -7 -3 -5 34.59 2.57
 7 3 5 35.46 2.48
 7 3 -5 37.86 2.56
 7 3 -5 31.59 2.71
 -7 3 -5 35.49 2.43
 -7 3 5 34.38 2.79
 7 3 5 35.9 2.38
 7 -3 5 36.88 2.6
 7 -3 5 34.69 2.57
 -7 3 -5 36.23 2.52
 7 -3 5 36.84 2.44
 7 3 6 14.05 1.61
 7 -3 6 14.79 1.7
 7 3 6 15.44 1.66
 7 3 -6 14.59 1.88
 -7 -3 -6 15.03 1.76
 7 3 6 14.33 1.53
 -7 3 -6 13.36 1.48
 -7 -3 -6 15.97 1.63
 -7 3 6 12.76 1.72
 -7 3 -6 15.09 1.6
 7 -3 -6 17.19 1.95
 -7 -3 -6 14.28 1.65
 -7 -3 6 16.91 1.81
 7 -3 6 20.1 2.03
 -7 -3 -7 201.95 6.56
 7 3 7 187.99 5.76
 7 -3 7 201.15 6.24
 -7 -3 7 191.39 6.13
 -7 3 7 182.39 6.22
 -7 3 -7 183 5.4
 -7 -3 -7 225.13 6.2
 7 3 7 197.32 5.83
 7 -3 7 209.13 6.8
 7 -3 -7 200.39 6.89
 -7 3 -7 191.33 5.78
 -7 3 8 1.28 0.55
 -7 -3 8 2.42 0.71
 7 3 8 1.58 0.55
 7 3 8 1.04 0.52
 -7 3 -8 1.35 0.47
 7 -3 -8 1.46 0.59
 7 3 -8 1.03 0.52
 -7 -3 -8 1.63 0.63
 -7 -4 0 0.06 0.13
 -7 4 0 0.01 0.09
 7 -4 0 0.11 0.19
 -7 4 0 0.08 0.14
 7 4 0 0.32 0.22
 -7 4 0 0.09 0.15
 7 -4 0 0.58 0.23
 7 -4 0 0.03 0.15
 -7 4 1 1071.94 6.92
 -7 4 -1 1127.8 10.98
 -7 4 -1 1123.76 12.1
 -7 4 1 1007.79 11.25
 7 -4 -1 1137.14 10.66
 -7 -4 -1 1108.93 10.73
 7 -4 1 1008.09 8.53
 -7 4 1 1044.71 9.49
 7 -4 1 1093.48 12.14
 -7 -4 1 1102.82 11.44
 -7 -4 -1 1059.69 11.01
 7 4 1 1003.51 11.04
 7 -4 1 1014.22 12.62
 7 4 -1 1021.38 9.34
 -7 -4 1 999.33 7.4
 7 -4 1 1068.44 11.75
 -7 -4 -1 1142.23 12.77
 -7 4 -1 1052.43 11.18
 7 4 1 1101.52 12.75
 7 4 -1 1040 12.69
 7 -4 2 925.96 10.91
 7 4 -2 985.58 12.56
 7 -4 -2 1011.07 11.6
 -7 -4 -2 939.99 10.48
 7 -4 -2 941.95 12.41
 -7 4 2 988.86 7.88
 7 4 -2 939.15 7.84
 7 4 2 951.31 11.39
 7 -4 2 914.18 11.39
 7 4 2 1013.95 9.24
 7 4 2 911.26 11.43
 -7 4 -2 967.32 11.25
 -7 4 2 953.88 11.36
 7 4 -2 942.92 11.4
 7 4 2 1015.12 12.1
 -7 -4 -2 967.19 12.21
 7 -4 2 942.7 12.6
 7 -4 -2 842.12 9.5
 7 4 2 1033.39 6.13
 -7 -4 3 84.16 3.73
 -7 4 -3 82.64 3.47
 -7 4 -3 85.25 3.1
 -7 -4 -3 86.46 3.45
 -7 -4 3 78.84 3.09
 7 4 3 82.18 2.52
 7 -4 -3 78.35 3.76
 7 -4 3 81.59 3.6
 7 4 3 86.56 3.26
 -7 -4 -3 84.91 3.65
 7 -4 -3 69.93 3.23
 7 4 3 83.87 3.47
 -7 4 3 84.12 3.52
 -7 -4 -3 88.49 3.77
 7 4 -3 79.51 3.46
 7 -4 3 79.75 3.75
 7 -4 3 76.28 3.21
 -7 4 -3 83.28 3.45
 -7 4 -4 318.46 6.69
 -7 -4 -4 312.65 7.08
 7 -4 -4 338.4 8.03
 -7 -4 4 325.69 6.89
 7 4 4 319.2 5.83
 7 -4 -4 302.42 7.79
 -7 4 4 287.96 7.18
 7 -4 4 311.72 7.27
 7 4 4 295.32 7.01
 7 -4 4 291.8 6.76
 -7 4 -4 287 6.66
 -7 -4 4 317.85 7.96
 -7 4 4 317.8 7.05
 7 4 4 276.82 6.59
 -7 -4 -4 351.7 7.56
 7 4 -4 314.56 7.14
 -7 4 -4 283.84 6.86
 7 -4 -5 177.81 6.47
 7 -4 -5 196.03 6.38
 -7 4 5 179.57 6.23
 7 4 5 189.96 5.69
 -7 -4 -5 194.24 6.21
 7 4 -5 202.79 6.11
 7 4 -5 185.11 6.66
 7 -4 5 196.52 6.17
 -7 -4 -5 205.64 5.8
 -7 4 -5 185.41 5.37
 -7 -4 5 187.65 6.48
 -7 -4 5 181.28 5.54
 7 -4 5 171.96 5.46
 -7 -4 6 278.15 7.18
 7 -4 -6 241.66 7.7
 7 -4 6 256.95 7.18
 7 4 6 263.01 6.76
 -7 -4 -6 261.94 7.26
 -7 -4 -6 294.07 7.61
 7 -4 -6 259.9 7.67
 7 -4 6 272.14 7.52
 -7 4 -6 238.82 6.21
 -7 -4 -6 271.74 6.67
 7 -4 6 260.63 6.76
 7 4 -6 255.94 7.87
 -7 4 6 218.62 7.15
 -7 4 -6 241.12 6.46
 7 4 6 264.77 6.56
 -7 -4 -7 269.6 7.66
 7 4 7 271.19 6.68
 7 -4 7 267.99 7.01
 7 -4 -7 277.89 8.01
 7 4 -7 268.39 8.1
 -7 4 7 249.9 7.37
 7 -4 7 276.25 7.37
 -7 4 -7 261.4 6.49
 -7 -4 7 275.69 7.29
 -7 4 -8 2.11 0.61
 7 -4 -8 2.08 0.73
 7 4 8 1.16 0.46
 -7 -4 8 1.21 0.54
 7 -5 0 -0.03 0.19
 7 -5 0 0.32 0.2
 7 5 0 0.23 0.24
 7 5 0 0.45 0.24
 -7 5 0 0.17 0.19
 7 5 0 0.07 0.14
 7 -5 0 0.03 0.14
 7 5 0 0.18 0.08
 7 5 1 356.47 7.31
 7 5 -1 367.14 7.79
 -7 5 1 325.98 4.16
 -7 5 -1 353.06 6.38
 7 -5 1 326.1 6.96
 -7 -5 1 370.94 4.75
 7 -5 -1 340.52 6.29
 -7 -5 -1 368.49 6.86
 7 -5 1 338.66 5.57
 7 5 1 312.78 3.02
 7 -5 -1 347.02 7.5
 -7 5 1 346.39 5.74
 7 -5 1 352.04 7.29
 7 5 1 329.43 2.8
 7 5 1 354.67 6.65
 7 -5 -1 354.13 4.26
 -7 5 -1 355.75 6.61
 -7 -5 -1 369.73 6.82
 -7 -5 1 358.32 6.92
 7 -5 1 334.42 4.05
 -7 5 -1 351.77 7.11
 -7 5 1 337.38 6.75
 7 5 -1 343.52 5.7
 7 5 1 350.81 6.87
 7 -5 1 357.15 7.89
 7 5 2 124.02 4.43
 7 5 -2 120.24 4.3
 7 -5 2 126.21 3.55
 -7 5 -2 117.34 3.89
 7 -5 2 119.14 4.19
 7 -5 -2 133.41 4.41
 -7 -5 -2 113.78 4
 7 -5 -2 108.94 4.18
 7 -5 2 125.68 4.48
 7 5 2 134.68 3.31
 -7 -5 2 119.87 2.4
 7 5 2 127.05 4.41
 -7 5 2 115.05 3
 7 -5 -2 122.89 3.54
 7 5 2 121.24 4.09
 7 5 -2 112.36 2.81
 -7 5 2 119.38 4.17
 -7 -5 2 130.89 4.38
 -7 -5 -2 128.43 4.32
 -7 5 -2 123.32 4.08
 -7 -5 2 125.07 3.32
 7 5 2 114.82 2.37
 -7 -5 -2 125.33 4.41
 7 -5 2 119.25 4.63
 7 5 -3 102.55 4.52
 -7 -5 -3 105.8 3.97
 7 -5 -3 111.62 4.41
 7 5 3 106.06 2.99
 -7 -5 3 109.11 3.66
 7 5 -3 111.29 4.29
 -7 5 -3 107.16 3.97
 7 -5 3 107.7 4.06
 7 5 3 111.71 4.17
 7 5 3 96.43 3.74
 7 -5 -3 98.51 3.92
 -7 -5 -3 109.32 4.18
 -7 5 3 101.64 3.95
 -7 -5 3 111.42 4.4
 -7 -5 -3 110.1 4.18
 7 -5 3 110.27 4.56
 7 5 3 116.6 4.33
 -7 5 -3 105.41 3.9
 -7 5 -4 395.14 7.91
 -7 5 -4 449.49 8.17
 7 5 -4 436.12 9.8
 7 -5 -4 452.43 9.57
 -7 -5 -4 460.26 8.92
 -7 -5 4 444.07 8.13
 7 5 -4 436.97 8.83
 7 -5 4 441.35 8.92
 7 5 4 445.4 8.76
 -7 -5 -4 439.92 8.78
 -7 5 -4 407.16 7.89
 -7 -5 -4 485 9.1
 7 -5 4 430.27 8.28
 7 -5 4 409.8 8.75
 -7 -5 4 422.51 9.43
 -7 5 4 387.92 7.59
 7 5 4 443.65 8.08
 7 -5 5 65.89 3.39
 -7 -5 -5 74.81 3.74
 7 -5 -5 68.66 3.85
 -7 -5 5 68.12 3.42
 7 -5 -5 67.45 3.91
 -7 5 5 61.87 3.75
 7 -5 5 68.61 3.62
 7 5 5 70.39 3.49
 7 5 -5 69.86 3.74
 -7 -5 5 65.66 3.82
 7 -5 5 68.38 3.71
 7 5 5 65.98 3.18
 -7 5 -5 71.49 3.43
 -7 5 5 68.62 3.46
 -7 -5 -5 74.65 3.58
 -7 5 -5 65.55 3.21
 7 -5 6 108.24 4.66
 -7 5 -6 102.9 4.19
 7 5 6 103.92 4.23
 7 5 -6 100.24 4.97
 -7 -5 -6 114.72 4.4
 -7 -5 6 84.84 4.6
 -7 -5 6 115.53 4.65
 7 -5 6 110.57 4.86
 -7 -5 -6 109.09 4.65
 7 -5 6 95.05 4.17
 7 -5 -6 104.22 4.81
 7 -5 7 119.37 4.72
 7 5 7 140.62 4.89
 -7 -5 -7 140.86 4.89
 -7 5 -7 116.2 4.41
 -7 -5 -7 130.85 5.21
 7 5 7 127.14 4.55
 -7 5 -7 124.13 4.61
 7 -5 7 130.28 5.13
 -7 -5 7 131.49 5.15
 -7 5 7 120.21 5.15
 7 -5 -7 133.01 5.57
 7 -5 8 0.07 0.23
 -7 -5 8 0.23 0.29
 7 -6 0 0.1 0.2
 7 -6 0 0.33 0.23
 -7 -6 0 0.13 0.21
 7 -6 0 0.5 0.2
 -7 6 0 -0.02 0.13
 7 6 0 0.27 0.22
 -7 6 0 0.05 0.12
 7 -6 0 0.23 0.25
 -7 -6 1 569.84 6.46
 7 -6 1 539.68 9.34
 7 6 -1 554.38 7.83
 7 6 1 560.49 8.69
 7 -6 -1 553.45 8.75
 7 -6 1 506.55 7.95
 7 -6 -1 558.24 9.9
 -7 6 -1 554.09 8.72
 -7 6 1 563.01 7.92
 7 -6 1 551.39 9.47
 7 6 1 515.08 3.37
 7 6 1 476.39 3.46
 7 -6 -1 522.6 6.44
 7 6 1 557.66 9.5
 7 6 -1 531.56 9.73
 7 6 -1 453.61 5.5
 7 6 1 564.68 8.9
 -7 6 1 559.78 6.1
 -7 6 -1 556.83 8.27
 7 -6 1 495.28 9.95
 -7 6 -1 545.2 8.99
 -7 6 1 514.63 8.72
 7 -6 1 532.82 5.79
 -7 -6 -1 553.73 8.86
 -7 -6 1 580.6 9.24
 7 -6 -2 395.79 6.75
 -7 6 2 432.49 6.45
 -7 6 -2 414.13 7.84
 -7 -6 -2 400.28 7.74
 7 -6 -2 352.64 7.56
 7 6 2 336.33 4.71
 7 6 2 398.55 7.76
 7 6 -2 391.58 8.12
 -7 6 2 379.7 7.85
 7 -6 2 399.69 8.05
 -7 -6 2 430.9 6.43
 -7 -6 2 396.49 7.88
 -7 -6 -2 425.08 8.03
 7 6 2 373.4 7.29
 -7 6 -2 395.67 7.59
 7 -6 -2 429.46 8.39
 7 -6 -3 9.62 1.38
 7 6 -3 9.63 1.34
 7 6 3 9.59 1.23
 7 -6 3 8.95 1.26
 -7 -6 -3 9.58 1.25
 7 -6 3 9.1 1.19
 -7 -6 -3 9.92 1.29
 7 -6 -3 9.66 1.3
 -7 6 3 11.84 1.41
 7 6 3 8.6 1.16
 7 -6 -3 10.5 1.39
 -7 -6 -3 8.87 1.2
 7 6 -3 8.03 1.41
 -7 6 -3 8.57 1.15
 7 -6 3 9.78 1.36
 -7 -6 4 323.72 8.21
 -7 6 -4 291.43 7
 7 6 -4 304.31 8.37
 7 -6 -4 317.84 8.11
 -7 -6 4 305.28 6.77
 7 -6 -4 301.07 8.06
 7 6 -4 320.07 7.81
 7 -6 4 318.67 7.8
 7 6 4 324.61 7.48
 -7 -6 -4 326.07 7.65
 -7 -6 -4 309.69 7.23
 -7 6 -4 283.63 6.7
 7 6 4 295.67 6.78
 7 -6 4 289.04 7.58
 7 -6 4 284.19 6.93
 -7 6 4 276.56 6.75
 -7 6 4 306.49 7.2
 7 6 -5 41.93 2.98
 -7 6 -5 39.02 2.6
 7 -6 -5 40.37 3.08
 -7 -6 -5 43.33 2.89
 -7 -6 5 40.03 2.64
 7 -6 -5 37.58 2.9
 7 -6 5 43.35 2.92
 -7 -6 -5 42.77 2.76
 7 6 5 38.67 2.6
 7 6 -5 41.24 3.16
 -7 -6 -5 43.53 2.89
 7 -6 5 37.5 2.61
 7 -6 5 43.66 3.12
 -7 6 5 39.29 2.67
 -7 6 5 39.13 2.87
 -7 -6 5 42.55 3.1
 -7 6 -5 40.8 2.59
 7 6 5 40.62 2.52
 -7 -6 6 92.43 4.19
 -7 6 6 74.9 4.27
 -7 -6 6 75.35 4.28
 7 -6 6 87.74 4.17
 7 6 6 87.47 3.89
 -7 -6 -6 96.06 4.44
 7 -6 -6 85.18 4.38
 -7 -6 -6 92.24 4.36
 -7 -6 -6 91.96 3.99
 -7 6 -6 82.76 3.73
 -7 6 -6 85.88 3.89
 -7 6 6 84.32 3.99
 7 6 -6 93.48 4.87
 7 -6 6 78.89 3.93
 7 -6 6 89.92 4.43
 7 -6 7 168.84 5.95
 7 6 7 166.75 5.29
 -7 6 -7 175.08 5.52
 -7 -6 7 162.68 6.32
 -7 6 -7 187.88 5.83
 7 6 7 173.22 5.22
 7 6 -7 178.49 6.68
 -7 -6 -7 184.73 5.6
 -7 6 7 158.45 6.11
 -7 -6 -7 181.84 6.04
 7 -6 -7 181.2 6.55
 -7 -7 0 0.23 0.27
 7 -7 0 0.14 0.14
 -7 -7 0 0.18 0.16
 7 -7 0 0.15 0.18
 7 -7 0 0.19 0.23
 7 7 0 0.09 0.16
 -7 7 0 0.49 0.27
 -7 7 0 0.24 0.21
 7 7 0 0.14 0.18
 -7 -7 -1 340.05 7.44
 7 -7 -1 335.54 7.41
 7 -7 1 290.24 6.53
 7 -7 -1 333.65 7.98
 7 7 1 328.03 7.02
 7 7 -1 343.27 6.64
 7 -7 1 359.23 7.99
 7 7 -1 295.51 4.77
 -7 -7 -1 335.51 7.17
 -7 -7 1 336.07 7.22
 7 -7 1 312.93 5.09
 -7 7 1 343.81 6.61
 -7 7 -1 331.55 6.94
 7 -7 1 339.85 7.82
 -7 7 1 326.11 5.21
 7 7 1 347.94 7.55
 -7 7 -1 333.53 7.17
 7 -7 -1 379.31 6.34
 -7 7 1 327.02 7.14
 7 -7 -2 1142.54 14.37
 -7 -7 -2 1125.24 13.49
 7 -7 -2 1014.08 13.66
 7 -7 2 1079.93 11.5
 -7 -7 2 1072.51 13.58
 -7 -7 -2 1094.02 13.3
 7 -7 2 1147.35 14.32
 7 7 2 1045.87 13.16
 7 7 2 1150.84 13.85
 -7 7 -2 1053.8 12.56
 -7 7 2 1110.1 11.32
 -7 7 2 1026.53 13.01
 -7 7 -2 1077.56 13.09
 -7 -7 2 1127.16 11.18
 -7 7 -2 1145.87 13.01
 7 -7 2 1070.88 14.89
 -7 -7 -2 1144.69 14.17
 7 7 -2 1094.14 10.81
 7 7 2 1214.13 13.45
 -7 -7 -3 271.03 6.85
 7 -7 -3 274.44 7.57
 -7 7 -3 277.48 6.71
 7 -7 3 284.31 7.29
 -7 -7 3 286.04 7.4
 7 7 3 276.91 6.84
 7 7 -3 271.23 7.27
 7 7 3 276.9 6.66
 -7 7 -3 268.26 6.51
 7 -7 3 267.54 6.83
 -7 -7 3 284.88 6.15
 -7 7 -3 262.82 6.71
 7 7 3 259.21 6.25
 7 -7 -3 311.04 7.93
 -7 -7 -3 285.07 7.14
 7 -7 3 292.68 7.72
 -7 -7 4 343.07 7.29
 7 -7 -4 332.51 8.61
 7 -7 4 339.85 8.12
 -7 7 -4 311.02 7.33
 7 7 -4 326 8.76
 7 -7 4 325.21 7.78
 -7 7 4 311.94 7.19
 -7 7 -4 314.77 7.46
 7 7 -4 331.63 8.17
 -7 -7 -4 328.29 7.82
 7 -7 -4 329.22 8.32
 7 7 4 320.79 7.12
 7 -7 4 343.18 8.4
 -7 7 4 317.57 7.51
 7 -7 5 149.46 5.35
 7 -7 -5 162.77 6.12
 -7 -7 5 152.55 5.04
 7 -7 -5 150.76 5.85
 -7 7 5 139.99 5.53
 7 -7 5 150.9 5.52
 -7 7 -5 147.75 5.11
 7 -7 5 153.95 5.66
 -7 -7 -5 152.02 5.41
 -7 -7 5 150.22 5.94
 -7 7 5 135.56 4.99
 7 7 -5 142.08 5.94
 -7 7 -5 143.63 5.06
 -7 -7 -5 149.44 5.33
 7 7 5 140.3 4.75
 7 7 -6 82.18 4.57
 -7 -7 -6 85.88 3.93
 7 -7 -6 84.22 4.5
 -7 7 6 76.29 4.22
 7 -7 6 84.81 4.37
 7 -7 6 81.65 4.08
 -7 7 -6 76.34 3.59
 7 7 6 74.46 3.47
 7 7 6 86.05 3.86
 -7 -7 -6 78.46 4.03
 -7 7 6 78.21 4.05
 7 -7 -6 86.9 4.53
 -7 -7 -6 88.81 4.27
 7 -7 6 74.6 3.81
 -7 -7 6 75.81 4.27
 -7 7 -6 84.82 3.91
 7 -7 -7 156.87 6.05
 7 -7 7 165.24 5.7
 -7 7 -7 152.01 5.04
 7 7 7 154.56 5.14
 -7 -7 7 132.54 5.9
 -7 -7 -7 155.74 5.55
 7 -7 7 146.47 5.36
 7 7 7 156.54 4.98
 7 -7 -7 160.32 6.03
 -7 7 7 142.21 5.83
 -7 7 -7 149.84 5.15
 7 7 -7 157.96 6.24
 7 -8 0 0.3 0.3
 7 8 0 0.03 0.16
 7 8 0 0.17 0.25
 -7 8 0 -0.05 0.15
 7 -8 0 -0.04 0.28
 7 -8 0 0.22 0.24
 -7 8 0 -0.03 0.15
 -7 -8 0 0.03 0.2
 -7 8 0 0.24 0.22
 7 8 0 0.16 0.21
 7 -8 1 205.91 6.27
 -7 -8 1 202.73 5.79
 -7 -8 -1 213.18 5.91
 7 -8 -1 215.49 6.61
 7 8 1 209.11 5.75
 -7 -8 -1 193.48 5.96
 7 -8 -1 226.94 6.47
 7 -8 1 168.99 5.53
 7 8 -1 189.25 6.04
 7 8 1 188.17 5.74
 -7 8 1 187.29 5.22
 7 -8 1 186.8 5.98
 -7 8 -1 189.48 5.53
 -7 8 -1 206.56 5.4
 -7 8 1 182 5.5
 7 8 -1 225.88 5.72
 7 -8 2 158.35 5.48
 7 8 2 173.24 5.46
 -7 8 -2 157.74 5.15
 7 8 -2 146.7 5.4
 7 8 2 161.42 5.2
 -7 8 -2 163.73 5.21
 7 -8 -2 161.07 5.57
 -7 8 -2 165.01 5.12
 -7 8 2 152.23 5.05
 -7 -8 -2 165.22 5.38
 -7 -8 2 158.22 5.43
 7 8 2 163.08 5.13
 7 -8 -2 158.89 5.52
 7 -8 2 160.68 5.49
 7 8 -3 19.96 2.02
 7 8 3 20.78 1.95
 -7 -8 -3 19.53 1.94
 -7 -8 -3 19.13 1.89
 -7 -8 3 21.33 2.06
 -7 8 -3 20.88 1.9
 -7 8 -3 18.67 1.84
 7 -8 3 21.31 2.03
 -7 8 -4 237 6.52
 7 8 -4 219.9 7.33
 -7 8 4 225.44 6.42
 7 8 4 254.16 6.58
 -7 -8 -4 237 6.7
 7 -8 -4 254.77 7.52
 -7 8 -4 217.34 6.42
 7 -8 -4 235.03 7.29
 7 -8 4 250.1 7.13
 7 8 4 253.97 7.02
 -7 -8 -4 237.62 6.56
 -7 -8 -4 255.14 6.89
 7 8 4 230.88 6.1
 -7 8 4 240.53 6.57
 -7 -8 4 277.66 7.73
 7 -8 4 234.18 6.69
 7 -8 4 253.02 7.42
 -7 8 -4 229.64 6.25
 -7 8 -5 2.44 0.72
 -7 8 -5 2.73 0.71
 -7 8 5 2.5 0.78
 7 -8 5 2.43 0.75
 7 -8 -5 2.63 0.83
 -7 -8 -5 3.26 0.82
 7 -8 5 2.81 0.83
 7 8 5 2.61 0.7
 7 8 -5 3.58 0.92
 7 8 5 2.64 0.66
 -7 -8 -5 3.42 0.81
 -7 8 5 3.25 0.8
 7 -8 -5 3.16 0.87
 -7 -8 -5 2.96 0.82
 -7 -8 -6 52.49 3.12
 7 -8 -6 51.64 3.52
 7 -8 6 52.56 3.31
 -7 8 -6 44.6 2.78
 7 8 6 47.91 2.89
 -7 8 6 47.48 3.07
 7 -8 6 49.49 3.15
 7 -8 6 47.63 3.3
 7 -8 -6 49.63 3.46
 -7 -8 -6 47.84 3.18
 7 8 6 47.16 2.71
 -7 8 6 50.75 3.44
 7 8 -6 52.47 3.69
 -7 -8 6 45 3.4
 7 -8 -7 162.18 6.15
 7 9 0 0.03 0.16
 7 -9 0 0.12 0.27
 7 -9 0 0.08 0.25
 -7 9 0 0.41 0.27
 7 9 0 0.62 0.36
 7 -9 0 0.04 0.16
 -7 -9 0 -0.03 0.23
 7 -9 1 266.79 7.44
 -7 -9 -1 274.48 6.98
 7 9 1 275.89 6.88
 -7 9 1 251.25 6.39
 -7 9 -1 244.61 6.56
 7 9 -1 237.82 7.13
 7 9 1 252.26 6.8
 -7 9 -1 263.32 6.33
 -7 9 1 252.46 6.7
 7 -9 1 254.72 7.19
 -7 -9 -1 245.74 7.05
 7 -9 1 237.29 6.77
 7 -9 -1 292.06 7.73
 -7 9 -1 239.09 6.34
 7 -9 -1 278.83 7.7
 7 9 1 256.31 6.54
 7 9 -1 279.18 6.75
 7 9 2 335.91 7.78
 -7 9 -2 307.45 7.38
 -7 -9 -2 311.35 7.68
 7 9 -2 302.25 7.94
 7 9 2 314.68 7.32
 -7 9 -2 318.22 7.47
 7 -9 2 295.81 7.73
 7 -9 -2 301.27 7.83
 7 -9 -2 310.99 8.32
 7 -9 2 330.88 8.11
 7 9 2 300.95 7.03
 7 -9 -3 151.64 5.81
 -7 -9 -3 146.07 5.3
 7 -9 -3 131.63 5.55
 7 -9 3 140.85 5.41
 7 9 3 155.81 5.35
 -7 -9 -3 133.44 4.96
 -7 9 -3 140 5.09
 -7 -9 3 159.95 5.69
 7 -9 3 138.92 5.31
 -7 9 -3 139.42 5.07
 -7 9 -3 131.57 4.9
 7 9 3 140.04 4.87
 7 9 -3 142.1 5.47
 7 9 3 142.17 4.87
 -7 9 3 134.57 4.95
 -7 -9 -4 252.79 7.06
 7 -9 -4 259.65 7.82
 -7 9 -4 237.08 6.79
 -7 9 -4 249.74 6.81
 7 9 4 257.54 6.91
 7 -9 4 247.69 7.1
 -7 9 4 243.95 6.8
 -7 -9 -4 276.83 7.08
 -7 -9 4 272.03 7.85
 7 -9 4 257.87 7.78
 -7 9 4 225.94 6.59
 7 9 4 267.64 6.64
 7 9 -4 264.4 7.75
 7 -9 -5 106.88 5.05
 -7 -9 -5 105.1 4.64
 7 -9 -5 107.96 5.07
 -7 -9 -5 116.14 4.69
 7 -9 5 109.82 4.8
 -7 9 -5 105.03 4.38
 7 9 5 99.79 4.07
 7 9 5 109.35 4.51
 -7 -9 -5 101.66 4.49
 -7 9 5 95.16 4.23
 7 -9 5 100.79 4.53
 7 9 -5 84.77 4.74
 -7 -9 5 103.36 4.97
 -7 9 -5 102.35 4.4
 -7 -9 6 103.96 5.15
 7 -9 -6 101.69 5.01
 7 -9 6 113.89 4.87
 -7 9 -6 111.7 4.5
 7 9 6 105.62 4.27
 -7 -9 -6 116.44 4.83
 -7 9 -6 107.66 4.48
 7 9 -6 104.2 5.22
 7 -9 -6 109.45 5.21
 -7 -9 -6 105.86 4.75
 -7 9 6 105.16 4.55
 -7 9 6 105.39 4.86
 7 9 6 95.56 3.94
 7 -9 6 103.18 4.63
 7 10 0 0.07 0.19
 7 -10 0 0.04 0.21
 7 -10 0 0.04 0.26
 -7 10 0 0.07 0.21
 -7 10 0 0.03 0.19
 7 10 0 0.11 0.22
 7 -10 0 0.08 0.19
 -7 -10 0 0.04 0.28
 -7 -10 -1 527.16 9.94
 -7 -10 1 520.04 9.78
 7 10 1 526.5 9.69
 -7 -10 -1 514.17 10.41
 7 10 -1 488.06 9.98
 7 10 1 500.14 9.61
 7 -10 1 512.28 10.57
 7 -10 1 494.41 10.44
 -7 10 -1 496.76 9.06
 7 -10 -1 529.32 10.97
 -7 10 1 493.09 9.51
 -7 10 -1 477.07 9.39
 -7 10 -1 458.35 9.3
 7 -10 2 249.95 7.26
 -7 10 -2 232.93 6.5
 -7 10 -2 235.56 6.64
 -7 -10 2 241.72 6.86
 -7 -10 -2 246.51 6.93
 -7 10 -2 228.76 6.43
 7 10 -2 237.04 6.93
 7 10 2 231.58 6.35
 7 -10 2 235.12 7.06
 7 10 2 264.12 7.16
 -7 10 2 235.96 6.58
 7 -10 -2 228.93 7.17
 7 -10 -2 218.95 6.7
 7 10 2 245.68 6.56
 7 -10 -3 4.5 1.05
 -7 -10 -3 5.83 1.1
 7 -10 -3 3.63 1
 -7 -10 -3 4.11 0.91
 7 -10 3 4.19 0.97
 7 -10 3 3.5 0.89
 -7 -10 -3 4.21 0.95
 7 10 3 3.46 0.83
 7 10 -3 3.58 0.9
 7 10 3 4.73 0.92
 7 10 3 3.5 0.78
 -7 10 -3 3.9 0.86
 -7 10 -3 3.62 0.85
 -7 10 3 4.54 0.93
 7 -10 -4 196.46 6.8
 7 -10 4 189.39 6.4
 7 -10 4 219.71 6.94
 7 -10 -4 214.34 7.25
 -7 -10 -4 187.79 6.19
 -7 10 -4 180.13 5.87
 7 10 4 181.33 5.9
 -7 10 4 175.21 5.93
 -7 10 -4 184.57 6.01
 -7 -10 -4 201.56 6.35
 -7 -10 -4 195.86 6.23
 7 10 4 189.07 5.83
 -7 10 4 179.34 5.95
 7 10 4 206.37 5.78
 7 10 -4 209.17 6.98
 7 -10 -5 59.21 3.86
 -7 -10 -5 49.57 3.25
 -7 -10 -5 54.35 3.34
 7 -10 -5 51.76 3.56
 7 -10 5 57.3 3.53
 -7 -10 5 64.17 3.95
 -7 10 -5 50.08 3.09
 -7 -10 -5 52.7 3.16
 7 10 5 48.25 3.07
 -7 10 5 49.79 3.1
 -7 10 -5 53.94 3.22
 7 10 -5 51.99 3.58
 7 10 5 47.86 2.78
 -7 10 -5 46.97 3.15
 -7 10 6 76.42 3.84
 7 10 -6 78.28 4.35
 -7 -10 -6 72.88 3.78
 7 -11 0 0.13 0.29
 -7 -11 0 0.04 0.24
 -7 11 0 0.17 0.25
 7 11 0 0.39 0.35
 7 -11 0 0.04 0.25
 7 11 0 -0.04 0.19
 -7 11 0 0.15 0.27
 7 11 -1 133.75 5.35
 7 11 1 134.94 5.06
 -7 11 -1 130.64 5.1
 7 -11 1 129.35 5.56
 -7 -11 -1 141.01 5.59
 7 -11 -1 133.22 5.58
 -7 -11 -1 139.82 5.23
 -7 -11 1 141.61 5.3
 7 11 1 135.79 5.04
 7 -11 1 129.86 5.45
 -7 11 -1 127.11 4.86
 -7 11 1 121.93 4.76
 -7 11 -2 111.95 4.54
 -7 -11 -2 118.52 5.14
 -7 11 -2 115.06 4.78
 7 11 2 112.97 4.52
 -7 11 -2 113.07 4.65
 7 -11 3 29.65 2.58
 -7 11 -3 32.26 2.53
 -7 11 3 26.87 2.32
 7 11 -3 31.98 2.66
 7 11 3 27.87 2.2
 -7 11 3 28.92 2.35
 7 11 3 35.49 2.66
 -7 -11 -3 28.92 2.49
 7 11 3 28.27 2.23
 7 -11 -3 31.3 2.82
 7 -11 3 30.5 2.64
 -7 -11 -3 31.55 2.58
 -7 -11 3 30.07 2.6
 -7 11 -3 30.68 2.45
 -7 11 -4 169.93 5.75
 -7 -11 -4 166.16 5.93
 7 11 4 208.7 6.36
 -7 11 4 167.59 5.82
 7 -11 4 178.28 6.38
 -7 11 4 170.67 5.76
 7 11 -4 184.34 6.54
 7 11 4 165.9 5.25
 -7 -11 -4 184.28 6.2
 -7 -11 4 194.23 6.71
 -7 11 -4 183.5 6.09
 -7 -11 -5 15.9 1.86
 7 -11 -5 16.75 2.05
 7 -11 5 17.22 2
 -7 11 5 15.91 1.77
 -7 11 -5 16.78 1.82
 -7 -11 -5 16.82 1.81
 7 -11 5 18.13 2
 7 11 5 15.86 1.62
 7 11 5 16.39 1.78
 -7 -11 -5 16.15 1.87
 7 11 -5 17.03 2.06
 -7 11 -5 17.18 1.87
 -7 12 0 0.55 0.36
 -7 12 0 -0.04 0.18
 7 -12 0 -0.04 0.3
 7 -12 0 -0.05 0.21
 -7 -12 0 0.08 0.27
 7 12 0 0.71 0.44
 -7 12 1 208.15 6.29
 -7 12 -1 202.83 6.3
 -7 -12 -1 216.34 6.59
 -7 -12 1 213.29 6.58
 7 -12 -1 212.24 7.2
 -7 12 -1 194.14 6.77
 7 12 1 214.81 6.57
 7 -12 1 210.24 7.11
 7 -12 1 218.54 7.15
 7 12 -1 204.37 6.67
 7 12 1 204.7 6.33
 7 -12 2 295.33 8.31
 -7 12 2 257.78 7.09
 -7 12 -2 243.19 6.9
 -7 -12 -2 276.16 7.74
 7 -12 -2 230.98 7.5
 -7 12 -2 273.82 7.53
 7 12 -2 246.49 7.26
 7 12 2 271.93 6.99
 7 -12 2 258.41 7.91
 7 12 2 287.06 7.36
 -7 -12 -2 278.75 7.64
 -7 -12 2 271.92 7.52
 7 12 3 77.63 3.74
 -7 12 -3 76.29 3.96
 -7 12 3 70.45 3.79
 -7 -12 -3 78.09 4.16
 7 12 -3 76.81 4.16
 7 12 3 77.48 3.74
 -7 12 -3 77.99 3.98
 -7 12 -3 74.5 3.77
 7 -12 4 103.82 4.88
 -7 12 4 85.52 4.22
 7 12 4 98.16 4.44
 -7 -12 4 90.31 4.7
 7 -12 -4 89.6 4.85
 -7 12 4 92.43 4.19
 -7 12 -4 94.46 4.4
 -7 -12 -4 97.79 4.54
 7 12 4 93.15 3.96
 7 12 -4 97.35 4.79
 -7 12 -4 91.73 4.3
 7 12 4 96.08 4.11
 -7 -12 -4 95.09 4.51
 -7 -12 -5 24.09 2.29
 7 -13 0 0.28 0.27
 -7 13 0 0.19 0.28
 -7 -13 0 -0.18 0.31
 -7 -13 0 -0.04 0.2
 7 13 1 122.33 5.06
 -7 13 -1 121.95 5.19
 -7 -13 -1 131.39 5.6
 -7 13 -1 112.59 4.74
 7 -13 -2 181.15 6.68
 7 13 2 155.48 5.31
 7 13 -2 153.47 5.84
 7 -13 2 161.8 6.4
 -7 -13 -2 167.96 6.23
 7 13 2 165.48 5.59
 -7 -13 -2 159.91 6.02
 -7 -13 2 155.88 5.87
 -7 13 -2 180.22 5.97
 -7 13 2 160.59 5.61
 -7 13 -2 159.87 5.87
 -7 13 -3 24.51 2.3
 -7 -13 3 22.78 2.33
 -7 -13 -3 24.93 2.35
 7 -13 3 23.01 2.37
 7 -13 3 22.06 2.32
 -7 13 3 20.5 2.1
 7 13 3 23.69 2.09
 7 -13 -3 24.03 2.52
 7 13 3 24.31 2.12
 -7 13 3 21.06 2.05
 -7 -13 -3 22.29 2.28
 -7 -13 -4 115.13 5.02
 -7 13 4 95.14 4.4
 -7 -14 0 0.7 0.46
 7 14 0 0.2 0.27
 -7 -14 0 -0.09 0.25
 -7 14 0 -0.04 0.19
 7 -14 0 0.19 0.35
 7 14 1 144.89 5.31
 7 14 -1 144.41 5.71
 -7 14 -1 154.67 5.56
 -7 14 1 156 5.67
 7 -14 1 166.82 6.46
 -7 -14 -1 164.59 6.43
 -7 -14 1 161.93 5.95
 -7 -14 -1 169.59 6.01
 7 -14 1 151.66 6.44
 7 14 2 57.21 3.24
 7 -14 2 58.37 3.85
 -7 14 -2 57.21 3.61
 -7 14 -2 57.59 3.45
 -7 -14 -2 60.46 3.78
 7 14 2 58.77 3.4
 -8 0 0 3177.3 19.03
 8 0 0 3135.94 19.58
 -8 0 -1 167.62 3.41
 -8 0 -1 181.87 4.8
 -8 0 1 178.18 4.17
 8 0 1 176.51 3.54
 8 0 -1 181.23 3.63
 -8 0 1 190.71 4.42
 8 0 -1 169.41 4.28
 8 0 1 177.86 4.06
 -8 0 1 182.05 4.12
 -8 0 1 180.31 3.2
 8 0 2 1095.83 10.98
 8 0 -2 1055.97 9.89
 8 0 2 1007.48 12.72
 -8 0 2 996.68 8.85
 -8 0 -2 1119.94 12.42
 -8 0 2 1023.28 9.84
 8 0 2 1088.12 8.76
 8 0 -2 1010.22 8.99
 -8 0 2 1031.38 9.44
 8 0 -2 1058.2 11.49
 -8 0 2 1006.63 12.18
 -8 0 -2 1032.39 6.92
 8 0 -2 1022.47 11.45
 -8 0 -3 233.21 5.54
 8 0 3 239.9 6.22
 8 0 3 228.26 4.67
 -8 0 -3 249.63 6.03
 -8 0 3 170.74 3.01
 8 0 -3 243.55 6
 -8 0 -3 248.15 4.93
 -8 0 3 215.87 4.57
 8 0 -3 231.21 5.95
 -8 0 3 242.32 6.36
 8 0 -3 179.54 3.72
 -8 0 -4 2.98 0.68
 8 0 4 2.52 0.59
 8 0 -4 2.8 0.74
 -8 0 -4 2.96 0.67
 -8 0 4 2.32 0.52
 -8 0 -4 2.54 0.66
 8 0 4 2.26 0.64
 8 0 -4 2.44 0.69
 -8 0 4 2.29 0.69
 8 0 4 2.86 0.71
 8 0 5 13.32 1.59
 8 0 -5 13.59 1.68
 8 0 5 14.28 1.45
 -8 0 5 16.4 1.82
 8 0 5 14.77 1.67
 -8 0 -6 225.19 5.97
 8 0 6 232.92 6.83
 -8 0 6 212.96 6.65
 8 0 6 226.32 6.71
 8 0 -6 223.8 7.07
 8 0 -7 55.41 3.6
 -8 0 -7 61.59 3.16
 -8 0 -7 62.14 3.27
 8 0 7 61.12 3.56
 8 0 7 62.84 3.53
 -8 0 7 54.97 3.36
 -8 0 8 335.75 8.35
 8 0 8 330.93 8.3
 8 0 -8 307.2 8.37
 -8 1 0 12.27 0.58
 -8 -1 0 13.84 0.95
 -8 -1 0 13.39 0.8
 8 1 0 14.32 1.32
 8 -1 0 12.47 1.29
 8 1 0 15.15 1.35
 8 1 0 12.88 0.96
 8 -1 0 13.89 1.23
 -8 -1 0 15.57 1.39
 -8 1 0 12.11 1.19
 8 -1 1 254.35 5.17
 8 1 1 246.71 4.44
 -8 -1 1 259.06 4.8
 8 -1 -1 269.68 4.21
 8 1 -1 232.3 4.62
 8 1 -1 250.61 5.04
 8 -1 1 254.35 6.08
 8 -1 -1 256.46 5.53
 -8 1 1 238.17 2.94
 -8 -1 1 254.14 4.35
 -8 -1 1 258.76 5.38
 -8 -1 1 270.57 4.97
 -8 1 1 249.19 5.16
 -8 1 -1 224.66 3.52
 -8 -1 -1 247.94 4.54
 8 1 -1 246.94 4.68
 8 -1 -1 238.99 5.18
 8 -1 1 256.38 4.81
 -8 1 -1 270.98 5.91
 -8 1 1 260.99 4.98
 8 1 -1 252.38 5.24
 8 -1 2 10.88 0.6
 8 -1 -2 8.6 1.09
 8 1 -2 8.88 1.01
 -8 1 2 8.37 1.06
 -8 -1 2 9.74 1.1
 8 -1 2 8.31 1
 8 1 2 8.74 0.93
 8 -1 2 8.96 1.19
 8 1 -2 9.24 0.86
 8 -1 -2 8.04 0.92
 8 1 2 8.82 1.14
 -8 1 -2 9.1 1.14
 -8 -1 -2 8.94 1.12
 -8 1 2 7.56 0.74
 -8 -1 -2 9.13 1.01
 -8 1 -2 9.27 0.95
 8 1 -2 8.27 0.91
 8 -1 2 8.14 0.87
 8 1 -2 9.78 1.13
 -8 1 -2 9.94 0.55
 -8 -1 -2 9.29 0.8
 -8 -1 2 8.06 0.9
 -8 1 2 9.31 0.84
 -8 -1 2 14.13 1.04
 -8 1 2 9.37 0.99
 -8 -1 3 1102.03 12.96
 8 1 -3 1015.48 12.24
 -8 1 3 985.53 13.5
 -8 -1 -3 1006.33 12.1
 -8 1 -3 1096.88 12.98
 8 -1 3 1044.77 12.06
 8 1 3 1149.31 12.23
 8 -1 3 1103.5 13.37
 8 1 3 989.55 12.46
 -8 -1 -3 996.76 11.81
 -8 1 -3 999.62 11.85
 8 1 -3 835.9 9.42
 -8 -1 3 983.07 8.75
 -8 1 -3 1038.51 9.35
 8 -1 -3 1026.12 12.58
 8 1 -3 1132.43 13.51
 8 -1 3 1061.63 10.57
 -8 -1 3 1010.29 9.05
 -8 1 3 1038.09 10.56
 -8 -1 3 955.42 11.89
 8 -1 4 26.24 2.1
 8 1 4 27.52 2.09
 8 1 4 22.01 1.92
 8 -1 4 22.85 2.08
 8 -1 -4 27.53 2.29
 -8 1 -4 25.17 1.79
 8 1 -4 23.55 2.12
 -8 1 4 21.36 1.64
 8 -1 4 23.45 1.8
 -8 1 4 25.38 2.27
 -8 -1 -4 26.19 2.04
 -8 1 -4 24.07 1.9
 -8 -1 -4 24.47 1.86
 -8 -1 4 22.87 2.03
 8 1 4 24.85 1.71
 8 -1 -4 21.74 2.09
 -8 -1 -4 23.78 1.97
 -8 1 -4 23.86 1.99
 8 -1 -5 638.65 11.59
 8 1 -5 622.05 11.35
 -8 -1 5 634.36 11.1
 -8 1 5 596.1 10.98
 -8 -1 -5 589.15 10.79
 8 -1 5 624.63 9.64
 8 -1 5 658.9 10.93
 8 1 5 654.59 11.18
 8 1 -6 5.55 1.13
 8 -1 -6 4.78 1.05
 -8 -1 6 5.58 1.08
 -8 1 6 5.04 1.06
 -8 1 -6 5.7 1
 -8 1 -6 5.06 0.9
 -8 -1 -6 5.35 0.98
 8 -1 6 5.91 1.12
 8 1 6 4.92 1
 -8 1 -6 5.65 1.13
 -8 -1 -6 5.31 1.08
 8 -1 6 5.45 1.05
 8 1 6 5.97 1.1
 8 -1 -7 84.41 4.46
 8 1 -7 80.94 4.36
 -8 1 -7 86.15 3.89
 8 -1 7 80.54 4.12
 8 1 7 97.19 4.37
 8 -1 7 93.25 4.39
 8 1 7 86.14 4.1
 -8 1 -7 89.14 3.79
 -8 -1 -7 88.69 3.77
 -8 -1 -7 80.73 4.18
 -8 1 7 76.39 4.01
 -8 -1 7 85.56 4.16
 8 -1 8 1.83 0.66
 8 1 8 1.78 0.62
 -8 1 8 2.11 0.68
 -8 -1 8 2.22 0.67
 -8 1 -8 1.77 0.55
 -8 -1 -8 1.8 0.56
 -8 -1 -8 1.34 0.59
 8 1 8 2.17 0.67
 8 -1 -8 2.08 0.72
 8 1 -8 2.2 0.73
 -8 -2 0 2727.61 18.76
 8 -2 0 2574.4 18.95
 8 2 0 2713.69 17.81
 -8 -2 0 2660.11 15.35
 8 2 0 2606.52 11.82
 -8 2 0 2713.33 17.3
 8 2 0 2638.68 18.59
 8 2 -1 218.16 3.85
 8 -2 -1 221.64 5.28
 -8 -2 1 226.24 4.64
 -8 -2 -1 227.96 4.72
 8 -2 1 222.77 5.16
 8 2 1 220.7 3.79
 8 -2 1 221.89 5.7
 8 2 -1 219.65 4.67
 8 -2 -1 200.59 5.07
 8 -2 -1 238.92 4.15
 -8 2 1 205.35 4.32
 -8 2 1 215.6 5
 8 -2 1 218.66 5
 -8 -2 1 224.66 3.87
 -8 -2 -1 203.56 3.6
 8 2 -1 211.74 5.07
 -8 -2 1 205.86 4.92
 -8 -2 -1 229.18 5.77
 8 -2 2 750.1 8.99
 8 2 2 763.49 5.51
 8 2 -2 826.35 10.62
 -8 -2 -2 726.73 7.8
 8 -2 -2 782.54 9.61
 8 2 -2 754.12 8.79
 8 -2 -2 753.39 10.51
 8 2 2 804.14 8.63
 8 2 -2 799.01 7.7
 8 -2 2 813.95 11.18
 -8 -2 -2 795.11 9.8
 -8 2 -2 834.01 10.55
 -8 2 2 755.83 6.82
 8 2 -2 745.11 9.83
 -8 2 2 802.3 9.6
 -8 -2 2 776.75 9.23
 -8 -2 2 868.94 9.9
 -8 -2 -2 849.93 11.31
 -8 -2 2 766.64 7.05
 8 2 2 752.3 10.13
 8 -2 -3 27 2.18
 8 -2 3 30.17 2.1
 8 2 3 32.5 2.05
 -8 2 -3 33.64 1.67
 8 2 -3 26.54 1.78
 -8 2 -3 27.89 2.04
 8 -2 3 28.49 1.84
 8 2 3 29.59 2.19
 -8 2 3 30.73 2.25
 -8 2 -3 31.86 2.1
 -8 -2 3 30.58 2.07
 8 2 3 32.36 1.58
 -8 -2 3 27.2 1.28
 -8 2 3 29.63 1.88
 -8 -2 -3 28.74 1.81
 8 -2 -3 31.38 2.23
 8 2 -4 0.97 0.37
 -8 2 -4 0.48 0.31
 8 2 4 1.11 0.48
 -8 2 4 0.52 0.31
 -8 -2 -4 0.67 0.37
 -8 -2 4 1.21 0.48
 8 -2 4 0.49 0.3
 -8 2 4 0.84 0.51
 8 2 4 0.45 0.27
 8 -2 4 1.37 0.52
 8 2 4 0.81 0.36
 -8 -2 -4 0.47 0.3
 -8 2 -4 0.5 0.3
 8 -2 -4 0.55 0.37
 -8 -2 -4 0.68 0.35
 8 2 -4 0.45 0.33
 8 -2 -4 1.43 0.57
 8 2 4 0.64 0.38
 8 -2 5 6.53 1.1
 8 2 5 7.48 1.17
 -8 2 5 8.8 1.38
 8 2 5 7.02 1.14
 8 2 -5 6.39 1.19
 8 -2 -5 7.15 1.25
 8 -2 -5 7.11 1.28
 -8 -2 5 6.86 1.14
 8 2 5 6.93 1.11
 -8 2 -5 6.52 1.03
 -8 2 -5 6.88 1.09
 -8 -2 -5 6.62 1.15
 -8 -2 -6 244.65 7.2
 8 2 6 277.15 7.02
 -8 2 6 240.47 7.43
 -8 -2 6 266.81 7.24
 8 -2 6 274.93 7.5
 8 -2 -6 256.04 7.63
 8 2 -6 257.94 7.75
 8 -2 6 253.05 6.59
 8 -2 6 275.06 7.28
 8 2 6 281.88 7.63
 -8 -2 -6 271.16 6.73
 -8 2 7 15.47 1.81
 -8 -2 7 15.03 1.75
 8 -2 -7 15.58 1.96
 8 2 -7 14.19 1.88
 -8 -2 -7 16.67 1.7
 -8 2 -7 16.72 1.64
 8 2 7 15.49 1.7
 8 -2 7 16.9 1.9
 -8 -2 -7 16.71 1.95
 8 -2 7 16.21 1.84
 8 2 7 16.11 1.81
 -8 -2 -8 216.04 5.89
 -8 2 -8 196.82 5.58
 8 -2 -8 208.77 7.02
 8 2 -8 184.97 6.67
 -8 -2 8 196.7 6.39
 -8 -2 -8 202.11 6.85
 8 2 8 222.71 6.54
 8 3 0 12.32 1.16
 -8 -3 0 14.16 1.22
 -8 3 0 12.79 1.21
 8 -3 0 12.51 1.32
 8 -3 0 10.15 0.54
 8 -3 0 11.58 0.58
 8 -3 0 12.14 1.33
 -8 3 0 12.29 1.28
 -8 3 -1 208.39 5.12
 -8 3 1 224.47 3.69
 8 -3 1 205.99 5.1
 8 -3 -1 228.69 4.32
 -8 -3 -1 218.17 4.33
 8 3 1 211.68 3.23
 8 3 -1 215.49 5.36
 -8 -3 1 212.13 4.81
 -8 -3 -1 203.32 4.74
 -8 -3 1 209.11 5.24
 -8 -3 -1 215.64 5.49
 -8 -3 1 204.98 3.15
 8 3 1 194.38 4.91
 -8 3 -1 221.31 5.27
 -8 3 1 223.65 4.39
 8 -3 1 200.88 5.6
 8 3 -1 200.17 4.44
 8 -3 -1 227 5.68
 -8 3 1 205.86 5.1
 -8 -3 2 39.49 2.21
 -8 3 -2 44.26 2.52
 8 3 -2 40.74 2.42
 -8 -3 -2 37.32 1.93
 8 -3 -2 39.87 2.2
 -8 -3 2 38.75 1.39
 8 -3 -2 36.1 2.4
 -8 3 2 42.3 1.59
 -8 -3 -2 43.52 2.58
 8 -3 2 40.79 2.36
 8 3 2 38.76 2.39
 -8 -3 -2 39.78 2.29
 8 3 2 35.73 2.2
 8 3 -2 35.54 2.2
 8 -3 2 37 2.16
 8 3 2 30.56 0.83
 -8 3 2 38.6 2.22
 -8 3 -2 40.15 2.34
 8 3 -2 39.65 1.73
 8 -3 2 36.99 2.51
 -8 3 -3 942.1 13.05
 -8 3 -3 1122.8 10.06
 8 3 -3 1213.36 14.96
 -8 -3 -3 1012.15 11.4
 8 -3 -3 1160.49 13.72
 -8 -3 3 1174.87 12.22
 8 3 3 1169.68 9.28
 8 -3 -3 1076.16 13.84
 -8 -3 -3 1177.46 13.64
 8 -3 3 1138.77 13.2
 8 3 3 1153.65 12.54
 -8 -3 -3 1137.48 13.29
 8 3 3 1112.66 13.35
 -8 -3 3 1094.95 13.26
 -8 3 3 1081.61 12.17
 8 -3 3 1013.48 11.78
 8 3 3 1114.91 12.5
 8 -3 3 1108.14 14.06
 8 3 -3 1001.37 11.91
 8 -3 -4 357.4 8.31
 -8 -3 4 338.63 7.27
 8 -3 -4 306.11 7.85
 -8 3 4 298.21 7.81
 -8 -3 4 302.2 7.58
 8 -3 4 350.73 7.64
 8 3 4 385.53 7.95
 -8 -3 -4 358.93 7.92
 8 3 4 362.66 7.97
 -8 3 -4 345.76 7.31
 -8 -3 -4 353.14 7.58
 8 3 -4 342.28 8.37
 8 -3 4 342.9 8.16
 -8 3 4 328.43 6.91
 8 3 4 322.87 6.98
 8 -3 4 299.52 6.93
 8 -3 -5 944.24 14.33
 -8 -3 5 912.08 12.88
 8 -3 -5 893.4 14.19
 8 3 5 854.56 11.67
 8 3 5 956.06 13.89
 8 3 -5 937.08 14.64
 -8 -3 -5 971.71 12.68
 -8 3 -5 885.57 11.79
 -8 3 5 907.36 11.98
 -8 3 5 847.48 13.99
 -8 -3 -5 913.43 13.22
 8 3 5 956.7 12.93
 -8 3 -5 943.6 12.99
 8 -3 5 823.86 11.9
 -8 -3 6 116.69 4.67
 8 -3 6 124.87 4.99
 8 3 6 120.46 4.65
 8 -3 6 133.84 5.31
 -8 -3 -6 115.6 4.92
 8 3 6 111.56 4.27
 -8 3 -6 111 4.34
 -8 -3 -6 116.86 4.45
 8 -3 -6 126.76 5.51
 -8 3 6 115.36 5.01
 8 3 -6 121.19 5.33
 8 -3 6 120.76 4.63
 -8 -3 -7 50.96 3.31
 8 -3 -7 53.04 3.6
 8 3 -7 50.07 3.53
 8 -3 7 54.78 3.5
 -8 3 -7 53.29 2.93
 -8 -3 -7 60.99 3.24
 -8 -3 7 50.29 3.16
 -8 3 7 49.36 3.29
 8 -3 7 51.42 3.27
 -8 3 -7 51.65 2.99
 8 3 7 51.66 3
 8 3 7 50.61 3.06
 -8 -3 8 0.78 0.46
 8 -3 -8 0.63 0.44
 8 3 8 0.46 0.31
 -8 4 0 1304.48 12.06
 8 -4 0 1541.15 15.29
 8 -4 0 1454.52 15.75
 -8 -4 0 1554.42 14.95
 -8 -4 0 1624.55 14.09
 8 -4 0 1435.32 14.79
 -8 4 0 1573.34 13.19
 -8 4 0 1494.94 14.39
 8 4 0 1461.9 13.05
 8 -4 0 1626.85 10.24
 8 4 0 1574.66 15.04
 -8 4 -1 265.6 5.66
 -8 -4 1 299.79 3.67
 8 -4 1 281.21 6.41
 8 -4 -1 296.55 5.5
 -8 -4 -1 270.09 5.35
 8 -4 1 210.63 3.32
 8 -4 -1 278.93 6.72
 8 -4 1 255.25 6.12
 8 -4 1 271.38 6.68
 8 4 -1 263.04 6.25
 8 4 1 313.03 7
 8 4 1 254.39 5.78
 -8 4 -1 288.95 6.53
 -8 4 1 279.23 6.05
 8 4 -1 261.16 5
 8 4 1 258.29 5.74
 -8 -4 1 271.23 5.76
 -8 -4 -1 272.49 5.88
 -8 4 1 276.48 3.84
 -8 4 -1 287.48 6.05
 -8 4 1 282.04 5.04
 -8 -4 -1 261.44 6.11
 -8 4 2 735.34 10.19
 -8 4 -2 736.29 10.28
 8 4 -2 691.9 11.11
 8 -4 -2 799.5 10.53
 -8 -4 -2 755.78 9.39
 8 -4 -2 704.59 11.07
 -8 4 2 700.81 6.99
 8 -4 2 771.84 10.78
 8 4 2 760.21 7.96
 -8 -4 -2 760.08 10.51
 -8 -4 2 693.43 9.77
 8 4 2 740.99 10.69
 8 -4 2 725.3 10
 8 -4 2 809.58 11.8
 8 4 -2 691.65 7.41
 -8 -4 2 687.34 4.91
 8 4 2 726.18 10.13
 8 4 -2 708.27 10.47
 8 4 2 693.7 10.51
 -8 -4 -2 745.09 10.58
 8 4 -3 25.12 2.15
 -8 -4 -3 24.65 1.84
 -8 4 -3 24.8 1.92
 8 -4 -3 22.9 2.04
 -8 4 -3 23.51 1.92
 8 4 3 26.02 1.81
 -8 -4 -3 26 2.09
 8 -4 3 24.37 1.87
 -8 -4 -3 24.81 2
 8 4 -3 23.9 1.9
 8 4 3 23.02 1.88
 -8 4 3 24.16 1.88
 -8 -4 3 24.44 2.02
 -8 -4 3 24.12 1.72
 8 -4 3 27.18 2.23
 8 4 4 0.71 0.4
 -8 4 4 2.06 0.58
 -8 -4 -4 0.77 0.4
 8 4 -4 0.42 0.31
 -8 4 -4 0.69 0.36
 -8 -4 4 0.81 0.46
 -8 -4 -4 0.99 0.46
 -8 4 -4 2.17 0.59
 8 -4 -4 0.19 0.26
 8 -4 4 0.5 0.35
 8 4 4 1.03 0.44
 8 -4 -4 0.89 0.44
 -8 -4 -4 0.36 0.27
 8 4 -4 0.94 0.48
 8 4 4 0.63 0.35
 8 -4 4 0.78 0.43
 8 -4 4 0.44 0.31
 -8 -4 4 0.96 0.43
 -8 4 4 0.35 0.36
 8 -4 5 0.06 0.19
 -8 4 5 0.13 0.29
 -8 -4 5 -0.03 0.25
 -8 4 -5 0.75 0.37
 8 4 5 0.03 0.16
 8 -4 5 0.04 0.22
 -8 -4 -5 0.19 0.28
 -8 -4 5 -0.04 0.35
 8 -4 -5 0.34 0.33
 8 4 -5 0.04 0.2
 -8 4 5 0.48 0.33
 8 4 5 0.17 0.21
 8 4 5 0.49 0.37
 8 -4 5 0.32 0.31
 -8 4 -5 0.33 0.27
 8 -4 -6 208.18 7.08
 8 -4 6 213.26 6.51
 -8 4 -6 211.55 6.06
 8 4 6 195.7 5.89
 -8 -4 -6 208.9 6.52
 8 -4 6 220.07 6.79
 -8 -4 6 225.4 6.52
 8 -4 -6 199.31 6.81
 8 4 -6 210.76 7.13
 8 -4 6 198.12 5.99
 -8 4 -6 189.92 5.49
 -8 -4 6 191.53 6.69
 -8 -4 -7 5.56 1.12
 8 4 7 5.34 0.97
 8 4 -7 4.18 1.08
 8 -4 -7 6.8 1.29
 8 -4 7 6.21 1.2
 -8 -4 7 6.08 1.13
 8 -4 7 4.97 1.06
 -8 -4 -7 6.12 1.04
 -8 4 -7 5.37 0.94
 -8 4 7 6.19 1.18
 -8 4 -7 5.48 0.97
 8 -5 0 8.24 1.26
 8 5 0 6.67 0.83
 8 -5 0 7.21 1.13
 -8 5 0 8.43 1
 -8 -5 0 8.52 1.08
 8 -5 0 7.85 1.17
 8 -5 0 8.99 0.94
 8 5 0 8.84 1.19
 -8 5 0 7.69 1.09
 -8 5 0 8.23 0.87
 -8 5 -1 136.39 4.04
 8 -5 1 135.22 4.67
 -8 -5 1 143.56 2.73
 8 -5 1 137.43 5.12
 8 -5 1 147.03 3.56
 -8 -5 -1 138.58 4.25
 8 -5 -1 141.35 4.95
 -8 -5 -1 133.09 4.57
 -8 5 1 151.57 3.88
 -8 5 1 134.28 2.76
 8 5 -1 133.81 4.89
 8 5 1 142.66 4.75
 -8 5 -1 136.66 4.24
 8 5 -1 131.71 3.66
 8 5 1 142.5 4.35
 8 5 1 137.76 4.34
 -8 -5 1 134.98 4.3
 -8 -5 -1 139.94 4.35
 -8 5 -1 126.43 4.44
 -8 5 1 126.91 4.25
 8 -5 2 287.48 6.62
 8 -5 -2 327.44 6.97
 -8 -5 -2 311.24 6.39
 8 -5 -2 286.28 6.97
 -8 5 -2 318.7 6.76
 8 -5 2 310.35 7.47
 8 5 2 309.06 7
 8 5 2 324.56 5.09
 -8 5 -2 304.55 6.52
 8 5 -2 300.76 6.98
 -8 5 2 296.98 6.67
 -8 -5 -2 305.09 6.85
 8 -5 2 319.65 5.25
 -8 -5 2 320.49 5.26
 -8 -5 -2 327.14 7.02
 -8 -5 2 283.79 6.5
 8 5 -3 1146.21 15.8
 8 -5 -3 1190.72 14.64
 -8 -5 -3 1210.04 13.48
 -8 -5 3 1211.82 12.23
 8 -5 -3 1058.28 14.56
 -8 5 -3 1131.64 13
 8 5 3 1139.37 13.15
 8 5 3 1192.13 12.99
 -8 -5 -3 1207.25 14.23
 -8 -5 3 1302.67 14.89
 -8 -5 -3 1152.63 13.69
 8 -5 3 1131.69 15.01
 8 5 3 1201.93 14.41
 8 -5 3 1106.16 13.03
 8 5 -3 1141.01 13.82
 -8 5 3 1035.44 13.03
 8 -5 -4 15.91 1.81
 -8 -5 -4 14.31 1.57
 -8 -5 4 14.74 1.52
 8 -5 -4 14.39 1.74
 8 5 -4 15.11 1.87
 -8 5 4 12.97 1.65
 8 5 4 15.01 1.65
 -8 -5 -4 16 1.7
 -8 -5 -4 15.6 1.65
 -8 -5 4 15.01 1.77
 -8 5 -4 13.62 1.55
 8 -5 4 14.43 1.7
 8 5 -4 14.16 1.62
 -8 5 4 13.53 1.51
 8 -5 4 12 1.46
 8 -5 -5 641.29 11.76
 8 5 5 539.38 9.14
 8 -5 -5 568.5 11.34
 -8 5 5 542.19 11.4
 -8 5 5 558.91 9.99
 8 5 5 598.56 10.46
 -8 -5 -5 615.59 11.05
 8 5 -5 614.51 12.55
 -8 -5 5 604.15 10.34
 -8 -5 5 549.88 11.13
 8 -5 5 570.17 10.02
 8 -5 5 561.16 10.95
 -8 5 -5 565.7 9.85
 -8 5 -5 585.51 9.67
 -8 -5 -5 626.35 10.37
 -8 5 6 1.58 0.68
 8 -5 6 1.48 0.55
 8 -5 6 1.35 0.56
 -8 -5 6 1.27 0.6
 8 5 6 1.85 0.57
 8 -5 -6 1.84 0.68
 8 -5 -6 1.69 0.69
 8 -5 6 1.68 0.58
 -8 5 -6 1.42 0.51
 -8 5 -6 1.35 0.49
 -8 -5 -6 1.54 0.53
 8 5 6 1.55 0.53
 8 5 7 54.66 3.07
 8 -5 -7 55.34 3.65
 -8 5 -7 49.5 2.83
 8 -5 7 53.02 3.25
 -8 -5 -7 61.19 3.56
 8 5 -7 52.11 3.68
 -8 5 7 52.43 3.47
 8 5 7 53.54 2.91
 -8 5 -7 52.51 3.01
 8 -5 7 53.02 3.17
 -8 -6 0 1611.86 15.57
 8 -6 0 1554.08 17.1
 8 6 0 1612.44 14.53
 -8 6 0 1574.27 12.99
 -8 6 0 1584.42 14.08
 8 -6 0 1571.15 16.99
 8 6 -1 20.07 1.51
 8 6 1 23.06 1.82
 8 -6 1 22.91 2.01
 -8 6 1 20.82 1.55
 -8 6 -1 21.72 1.76
 8 -6 1 22.48 2.07
 8 6 -1 21.3 2.03
 8 -6 -1 21.35 1.73
 -8 6 -1 22.82 1.7
 -8 6 1 19 1.14
 -8 6 -1 22.88 1.88
 -8 -6 -1 23.31 1.85
 -8 -6 1 21.05 1.77
 -8 6 -2 705.87 10.14
 8 -6 2 660.52 10.62
 -8 -6 2 720.7 8.24
 8 -6 -2 713.07 10.85
 -8 -6 -2 681.65 10.37
 -8 -6 2 690.96 10.52
 -8 -6 -2 695.27 10.58
 8 -6 2 679.62 10.82
 8 6 2 716.41 10.72
 -8 6 -2 705.18 10.2
 -8 6 2 706.63 8.32
 -8 -6 -2 690.92 10.73
 -8 6 2 620.07 9.96
 8 6 2 658.87 9.95
 8 6 -2 649.1 10.75
 8 6 2 683.31 10.65
 -8 6 -2 674.61 10.48
 8 -6 2 677.41 11.34
 -8 -6 3 69.67 3.6
 -8 6 -3 67.49 3.28
 8 6 -3 75.56 4.02
 -8 -6 -3 65.9 3.29
 8 -6 -3 76.32 3.78
 -8 -6 3 67.51 2.9
 8 -6 -3 69.61 3.78
 8 -6 3 70.29 3.55
 8 6 3 74.62 3.54
 -8 -6 -3 79.99 3.69
 8 6 3 71.56 3.44
 8 6 3 70.43 3.29
 8 -6 3 68.92 3.4
 -8 -6 -3 67.36 3.39
 -8 6 -3 71.69 3.31
 8 -6 3 66.36 3.6
 -8 6 3 64.61 3.21
 8 -6 4 1.75 0.59
 8 -6 4 1.12 0.49
 -8 -6 -4 0.88 0.42
 8 6 -4 1.13 0.5
 -8 6 -4 1.79 0.57
 8 6 4 1.34 0.48
 -8 6 4 2.2 0.64
 8 6 -4 1.46 0.63
 -8 -6 4 0.9 0.49
 -8 -6 -4 1.15 0.5
 8 -6 -4 3.35 0.87
 8 6 -5 6.29 1.25
 -8 6 -5 5.12 0.92
 8 -6 -5 5.42 1.12
 -8 6 5 5.67 1.14
 8 -6 5 6.65 1.16
 -8 -6 5 6.15 1.21
 -8 -6 -5 6.58 1.14
 8 -6 5 5.7 1.11
 8 6 5 5.68 0.94
 -8 6 -5 5.75 1.01
 8 -6 5 5.4 1.01
 8 6 -5 6.12 1.16
 8 -6 -5 5.8 1.15
 -8 -6 -5 6.3 1.08
 -8 6 -6 169.56 5.25
 -8 -6 -6 186.18 5.7
 8 -6 -6 174.71 6.4
 8 -6 6 187.48 6.11
 8 6 6 174.53 5.57
 -8 -6 -6 181.46 6.16
 -8 6 -6 170.96 5.48
 8 -6 6 180.17 6.29
 -8 -6 6 162.12 6.11
 8 6 6 162.55 5.09
 8 -6 6 167.89 5.62
 8 6 -6 169.03 6.54
 -8 6 6 165.61 6.53
 8 -6 -6 169.17 6.43
 8 6 7 0.38 0.29
 8 -6 7 0.82 0.47
 -8 6 7 0.61 0.46
 8 -6 -7 0.63 0.41
 8 6 -7 0.28 0.35
 -8 -6 -7 0.7 0.44
 -8 -6 7 0.79 0.51
 8 6 7 0.93 0.41
 8 -6 -7 0.35 0.37
 8 -6 7 0.37 0.35
 -8 -6 -7 0.29 0.27
 -8 6 -7 0.73 0.38
 -8 6 -7 0.5 0.35
 -8 7 0 4.31 0.7
 8 7 0 3.71 0.83
 -8 7 0 3.43 0.71
 8 -7 0 4.03 0.79
 -8 7 0 3.9 0.81
 8 7 0 3.68 0.67
 8 7 0 4.35 0.79
 8 -7 0 4.16 0.91
 8 -7 -1 196.29 6.24
 8 7 1 175.27 5.15
 8 -7 1 177.77 5.74
 8 7 1 186.03 5.26
 8 -7 -1 188.9 5.54
 -8 7 -1 191.57 5.1
 -8 7 -1 171.9 5.27
 -8 -7 -1 165.92 5.33
 8 7 1 175.07 5.44
 8 7 -1 171.33 5.85
 -8 7 -1 175.41 5.12
 -8 7 1 159.74 5.08
 8 -7 -2 50.89 3.09
 -8 -7 -2 45.86 2.79
 8 -7 -2 41.5 2.73
 8 7 2 48.6 2.77
 8 -7 2 48.29 2.99
 8 7 2 47.03 2.83
 8 7 -2 43.4 2.92
 8 7 2 50.04 2.9
 -8 7 -2 46.64 2.69
 -8 7 -2 51.46 2.85
 8 -7 2 47.45 2.9
 -8 -7 -2 49.9 2.93
 -8 -7 2 47.42 2.87
 -8 7 -2 46.94 2.82
 -8 -7 -2 44.65 2.81
 8 -7 2 50.01 3.24
 8 -7 -3 427.68 9.43
 -8 -7 -3 496.46 9.33
 8 -7 -3 469.18 10.15
 -8 -7 3 471.69 9.47
 8 7 3 521.18 9.28
 8 7 3 527.07 9.82
 -8 -7 -3 535.12 9.78
 -8 7 -3 511.25 9.18
 -8 7 -3 545.51 9.79
 -8 7 -3 495.15 9.18
 8 -7 3 492.55 9.48
 8 -7 3 484.42 10.48
 -8 7 3 496.02 9.34
 8 7 -3 520.63 10.18
 8 -7 -4 207.59 6.86
 8 7 4 204.13 5.62
 -8 7 4 188.97 5.66
 8 7 4 217.34 6.25
 -8 -7 -4 228.89 6.59
 8 7 -4 209.73 6.63
 -8 7 -4 216.75 6.14
 -8 7 -4 214.1 6.09
 -8 -7 4 235.32 6.98
 8 -7 4 210.18 6.42
 -8 -7 -4 215.08 6.12
 -8 -7 -4 201.54 6.21
 8 -7 -4 216.84 6.93
 8 -7 4 207.05 6.8
 8 -7 5 439.38 9.39
 -8 7 5 411.73 8.67
 -8 7 -5 403.67 8.34
 8 7 -5 450.25 9.97
 -8 -7 -5 447.62 9.35
 8 -7 5 410.11 9.39
 8 7 -5 431.4 10.36
 8 -7 5 394.42 8.72
 8 -7 -5 433.84 10.13
 8 -7 -5 412.55 9.66
 8 7 5 366.14 7.74
 -8 -7 5 428.07 10.07
 -8 -7 -6 3.69 0.89
 8 -7 6 3.16 0.83
 8 7 -6 3.26 0.93
 8 7 6 3.5 0.75
 8 -7 6 3.13 0.81
 -8 -7 -6 3.71 0.84
 -8 7 -6 3.39 0.78
 8 -7 6 4.35 0.99
 -8 -7 6 3.19 0.95
 8 -7 -6 4.36 1.03
 8 -7 7 46.28 3.1
 -8 -7 7 50.71 3.49
 8 8 0 1755.38 18.04
 8 -8 0 1815.59 19.27
 8 -8 0 1791.3 19.59
 -8 -8 0 1783.58 17.74
 -8 8 0 1804.01 16.82
 8 8 0 1783.32 16.7
 -8 -8 -1 172.77 5.56
 8 -8 1 173.28 5.84
 -8 8 1 171.67 4.98
 -8 8 -1 168.18 5.24
 8 -8 -1 185.15 5.91
 8 8 -1 176.53 5.09
 8 8 1 174.46 5.28
 8 8 1 189.62 5.66
 8 8 1 165.01 5.36
 8 8 -1 150.63 5.79
 -8 8 -1 175 5.03
 -8 8 1 161.78 5.24
 -8 -8 -1 171.01 5.45
 -8 -8 1 167.69 5.31
 -8 8 -1 151.94 5.07
 8 -8 -1 171.94 6.02
 8 -8 1 163.33 5.69
 8 8 2 374.18 7.72
 -8 -8 2 395.12 8.45
 -8 -8 -2 413.96 8.59
 8 8 -2 375.92 8.58
 8 -8 2 363.56 8.34
 -8 -8 -2 367.35 8.21
 -8 8 2 354.58 7.92
 -8 8 -2 367.62 7.79
 8 -8 -2 409.48 9.33
 8 -8 3 25.46 2.27
 -8 8 3 23.88 2.11
 8 8 3 24.81 2.12
 -8 -8 -3 26.19 2.19
 -8 -8 -3 26.21 2.23
 -8 -8 -3 24.77 2.17
 8 8 -3 23.87 2.23
 8 8 3 25.39 2.08
 8 -8 -3 23.35 2.35
 -8 8 -3 23.17 2.03
 8 -8 3 25.25 2.39
 8 -8 4 0.23 0.27
 8 -8 -4 0.51 0.38
 8 8 -4 0.37 0.33
 -8 8 -4 0.17 0.24
 8 -8 4 0.44 0.35
 -8 -8 4 0.16 0.31
 -8 -8 -4 0.26 0.28
 -8 8 -4 1.01 0.45
 -8 8 4 0.07 0.23
 8 8 4 0.17 0.22
 8 8 4 0.26 0.24
 8 -8 4 0.21 0.28
 -8 8 4 0.1 0.17
 -8 -8 -4 0.18 0.23
 8 -8 -4 0.35 0.33
 -8 8 -4 0.16 0.2
 -8 -8 -4 0.65 0.38
 -8 8 -5 13.94 1.61
 8 -8 5 15.6 1.88
 -8 8 -5 12.45 1.47
 8 -8 -5 14.17 1.83
 8 -8 5 14.92 1.77
 8 8 5 13.88 1.51
 8 8 5 15.25 1.68
 8 -8 5 13.35 1.71
 8 8 -5 15.34 1.92
 -8 -8 5 14.98 1.91
 -8 -8 -5 13.56 1.62
 -8 8 -5 14.21 1.61
 8 8 -5 13.99 1.95
 -8 8 5 15.67 1.92
 8 8 6 165.04 5.38
 -8 -8 -6 175.13 5.98
 8 -8 6 180.89 6.13
 -8 8 6 163.89 5.67
 -8 8 -6 165.6 5.41
 -8 -8 6 176.48 6.48
 8 8 6 168.26 5.17
 8 -8 6 171.19 6.24
 -8 -8 -6 184.9 5.93
 -8 8 -6 149.83 5.02
 8 8 -6 148.12 6.39
 8 -9 0 10.17 1.52
 -8 9 0 9.53 1.27
 -8 -9 0 11.56 1.49
 -8 9 0 8.64 1.24
 8 9 0 9.68 1.38
 8 -9 0 10.49 1.51
 8 -9 1 123.92 5.22
 -8 9 1 122.81 4.67
 -8 9 1 136.94 4.69
 -8 9 -1 129.48 4.76
 8 9 1 122.93 4.69
 -8 9 -1 124.15 4.7
 8 -9 1 135.67 5.45
 -8 -9 -1 128.43 4.92
 -8 -9 1 126.66 4.87
 -8 -9 -1 126.12 5.09
 8 9 1 139.67 4.9
 8 -9 -1 129.58 5.44
 8 9 2 4.83 0.97
 -8 9 -2 5.25 0.95
 -8 9 -2 6.07 1.07
 8 9 -2 4.08 0.93
 8 9 2 5.16 0.95
 -8 9 2 4.01 0.86
 8 -9 2 4.54 1
 -8 -9 2 5.28 1.02
 -8 -9 -2 9.07 1.31
 8 -9 2 5.36 1.06
 8 -9 -2 3.66 0.9
 -8 9 -2 4.97 0.98
 -8 -9 -2 5.95 1.09
 8 -9 -3 452.78 10.5
 -8 -9 3 433.5 9.46
 -8 -9 -3 474.57 9.6
 8 -9 3 482.77 10.03
 -8 9 -3 414.31 8.83
 -8 -9 -3 472.47 9.63
 -8 9 3 423.96 8.86
 -8 -9 -3 434.99 9.31
 8 9 3 458.88 8.76
 8 9 -3 432.59 9.6
 8 9 3 441.23 8.61
 8 -9 3 443.44 9.5
 -8 9 -3 427.11 8.78
 8 9 4 3.74 0.82
 8 9 4 3.08 0.76
 8 9 -4 2.98 0.83
 -8 9 -4 2.22 0.66
 8 -9 4 3.03 0.83
 -8 9 4 2.14 0.67
 8 9 4 3.34 0.75
 -8 -9 -4 2.59 0.75
 -8 -9 -4 3.13 0.85
 8 -9 -4 2.98 0.86
 -8 9 -4 3.18 0.78
 -8 9 -5 334.77 7.96
 8 9 5 366.1 8.11
 -8 -9 -5 355.36 8.41
 -8 -9 5 329.33 8.81
 8 -9 5 345.14 9.22
 -8 9 5 328.4 7.86
 -8 9 -5 320.08 7.64
 -8 -9 -5 320.21 7.75
 8 -9 5 330.3 8.19
 8 9 -5 346.73 9.18
 -8 9 -5 322.26 7.99
 -8 9 -6 0.24 0.26
 8 9 -6 0.2 0.35
 -8 9 -6 0.29 0.29
 8 9 6 0.33 0.32
 -8 9 6 0.63 0.38
 8 -9 6 0.27 0.32
 -8 -9 -6 0.53 0.37
 -8 -9 -6 0.61 0.41
 -8 -9 6 0.17 0.36
 8 10 0 700.42 11.37
 8 -10 0 625.68 11.99
 8 -10 0 633.44 11.9
 -8 10 0 658.28 10.96
 -8 -10 0 718.32 11.68
 -8 10 0 564.21 10.16
 8 10 0 653.4 11.35
 8 -10 1 138.49 5.56
 -8 10 1 135.24 5.03
 -8 10 -1 124.5 4.78
 8 -10 -1 151.42 5.86
 -8 -10 -1 146.29 5.57
 -8 -10 -1 149.89 5.28
 -8 -10 1 143.95 5.18
 8 -10 1 144.24 5.68
 8 10 1 154.67 5.27
 8 10 1 137.93 4.99
 8 10 -1 148.5 5.59
 8 -10 2 356.5 8.86
 -8 -10 -2 377.46 8.75
 -8 -10 2 340.39 8.07
 -8 -10 -2 390.89 8.71
 8 -10 -2 326.22 8.15
 -8 10 -2 363.98 8.14
 8 10 2 353.7 7.99
 -8 10 -2 338.74 7.87
 8 10 -2 344.14 8.52
 8 10 2 329.07 7.54
 -8 10 2 326.11 7.69
 -8 10 -2 349.08 8.16
 8 -10 2 349.19 8.64
 8 -10 3 29.1 2.52
 -8 10 3 26.81 2.26
 -8 -10 -3 28.13 2.46
 -8 10 -3 27.45 2.3
 -8 -10 -3 31.59 2.54
 -8 -10 -3 28.54 2.4
 8 -10 -3 28.16 2.62
 8 10 3 33.99 2.62
 -8 10 -3 29.39 2.38
 8 10 3 28.37 2.21
 8 10 -3 24.83 2.37
 8 10 4 0.32 0.27
 -8 10 -4 0.48 0.36
 8 10 4 0.67 0.36
 8 10 -4 0.56 0.39
 -8 -10 -4 0.28 0.33
 -8 -10 4 0.73 0.49
 -8 -10 -4 0.92 0.48
 -8 10 4 0.54 0.35
 8 10 4 0.54 0.35
 -8 10 -4 1.12 0.49
 -8 -10 -4 0.75 0.4
 -8 10 -4 0.36 0.3
 8 -10 -4 0.57 0.45
 8 -10 4 0.79 0.47
 8 -10 4 0.65 0.43
 8 -10 5 0.49 0.41
 8 -10 -5 0.32 0.4
 8 10 -5 0.5 0.37
 -8 10 -5 0.25 0.24
 -8 -10 5 0.66 0.49
 -8 -10 -5 0.35 0.33
 -8 10 5 0.32 0.32
 8 10 5 0.37 0.28
 -8 10 -5 0.55 0.39
 -8 10 -5 0.35 0.31
 -8 -10 -5 0.38 0.28
 8 -10 5 0.91 0.48
 8 10 5 0.68 0.35
 8 -11 0 1.36 0.62
 -8 -11 0 1 0.5
 8 11 0 1.27 0.52
 -8 -11 -1 58.51 3.6
 -8 11 1 53.14 3.26
 8 -11 1 64.43 3.92
 8 11 1 59.29 3.31
 8 11 -1 55.45 3.49
 -8 11 -1 57.98 3.41
 8 -11 -1 60.07 3.75
 8 11 1 63.55 3.48
 -8 -11 -2 57.6 3.51
 -8 11 2 51.15 3.09
 -8 11 -2 51.06 3.1
 8 11 2 56.71 3.25
 8 -11 2 52.67 3.55
 -8 -11 -2 56.65 3.43
 -8 -11 2 52.41 3.29
 8 11 -2 50.99 3.38
 8 11 2 52.14 3.03
 8 -11 -2 50.76 3.31
 8 -11 2 53.92 3.51
 -8 11 -3 509.68 10.03
 8 -11 3 497.14 10.61
 8 11 3 429.24 8.57
 8 11 -3 487.88 10.41
 8 -11 -3 566.6 11.98
 -8 -11 -3 516.82 10.38
 -8 -11 3 532.03 10.73
 -8 11 3 460.39 9.41
 8 11 3 510.13 9.52
 -8 11 -3 489.64 9.71
 8 -11 3 545.68 11.02
 -8 -11 -3 534.51 10.44
 -8 11 -4 7.66 1.27
 8 -11 -4 9.3 1.57
 8 -11 4 10.38 1.57
 -8 11 -4 8.89 1.36
 8 11 4 10.86 1.48
 -8 -11 -4 9.82 1.41
 -8 11 4 9.56 1.39
 -8 -11 -4 8.21 1.37
 -8 11 4 7.33 1.25
 -8 -11 -4 9.05 1.39
 -8 -11 4 8.75 1.5
 8 -11 4 10.84 1.57
 -8 11 -4 10.29 1.43
 8 11 4 10.21 1.3
 -8 -11 -5 269.34 7.17
 8 11 -5 270.28 8.07
 -8 11 5 261.23 7.03
 -8 11 -5 287.03 7.55
 8 11 5 268.88 7.11
 8 -12 0 441.6 10.35
 8 12 0 414.46 9.17
 -8 -12 0 437.66 10.21
 -8 -12 1 0.34 0.32
 -8 -12 -1 0.09 0.22
 8 12 1 0.11 0.2
 -8 12 1 0.57 0.36
 -8 12 -1 0.11 0.21
 8 12 1 0.04 0.16
 8 12 -1 0.99 0.5
 8 -12 1 0.04 0.25
 8 -12 -1 -0.05 0.23
 -8 -12 2 213.89 6.61
 -8 12 -2 223.99 6.76
 8 -12 2 208.8 7.11
 -8 -12 -2 218.24 7.03
 -8 12 -2 207.45 6.35
 -8 -12 3 1.53 0.66
 -8 12 3 1.19 0.52
 -8 -12 -3 2.09 0.73
 8 -12 3 1.09 0.55
 8 -12 3 1.49 0.65
 8 -12 -3 1.03 0.59
 8 12 3 1.32 0.51
 8 12 -3 1 0.5
 8 12 3 1.13 0.48
 -8 -12 -3 1.05 0.48
 -8 12 -3 1.13 0.52
 -8 12 4 0.22 0.25
 -8 -12 4 0.09 0.31
 -8 -12 -4 0.64 0.37
 8 12 4 0.31 0.27
 8 12 -4 0.35 0.34
 -8 12 -4 0.07 0.25
 8 -12 4 0.43 0.39
 -8 -13 0 2.65 0.88
 8 -13 0 2.46 0.82
 8 13 0 2.37 0.73
 -8 -13 0 2.34 0.75
 -8 13 -1 49.3 3.4
 8 13 1 51.75 3.15
 8 13 -1 50.58 3.45
 -8 -13 -1 45.66 3.51
 8 -13 1 54.32 3.66
 -8 13 -1 50.94 3.19
 -8 13 1 47.02 3.01
 -8 -13 1 49.75 3.35
 -8 -13 -1 52.04 3.33
 8 -13 -1 56.28 3.79
 8 -13 1 50.19 3.67
 -8 13 2 1.84 0.63
 -8 13 -2 1.43 0.56
 8 13 2 1.54 0.56
 8 13 -2 1.48 0.61
 8 13 2 1.36 0.52
 -8 -13 -2 1.62 0.67
 -8 13 -2 2.04 0.69
 8 -13 2 1.33 0.63
 8 -13 -2 1.72 0.71
 8 13 3 233.96 6.65
 -8 13 -3 235.03 7.03
 -8 -13 -3 222.33 7.33
 -8 13 -3 230.88 6.89
 -8 13 3 211.12 6.6
 -8 -14 0 430.48 10.41
 -8 -14 -1 4.48 1.07
 -8 14 -2 124.84 5.33
 8 14 2 126.18 4.9
 -8 -14 -2 129.82 5.59
 -9 0 0 -0.02 0.12
 9 0 0 0.02 0.12
 -9 0 0 0.2 0.12
 9 0 1 710.38 10.45
 9 0 -1 725.28 9.42
 -9 0 -1 669.3 7.07
 -9 0 -1 691.62 9.7
 -9 0 1 693.02 8.71
 9 0 -1 625.3 8.29
 -9 0 1 735.04 8.61
 9 0 1 733.43 8.6
 -9 0 1 733.78 8.99
 -9 0 1 659.82 6.22
 9 0 -1 697.18 6.99
 -9 0 -2 429.28 6.7
 -9 0 -2 456.54 8.33
 9 0 2 443.57 7.1
 -9 0 2 417.78 8.21
 9 0 -2 412.24 6.06
 9 0 -2 470.9 7.71
 -9 0 -2 404.88 3.13
 -9 0 2 459.89 6.9
 9 0 -2 445.07 7.83
 9 0 2 461.89 8.86
 9 0 -2 459.46 6.92
 9 0 2 418.44 5.83
 9 0 3 472.72 7.22
 -9 0 3 509.86 7.34
 -9 0 -3 575.26 9.55
 9 0 3 607.38 10.19
 -9 0 -3 557.23 8.63
 9 0 -3 578.98 9.94
 9 0 3 556.46 8.72
 -9 0 3 556.47 8.55
 -9 0 4 355.79 8.28
 9 0 4 364.98 7.85
 9 0 -4 319.83 7.91
 9 0 4 331.93 7.83
 -9 0 -4 334.64 7.41
 9 0 -4 343.13 8
 -9 0 -4 363.56 7.72
 -9 0 -5 12.33 1.45
 9 0 5 14.73 1.69
 9 0 5 11.56 1.52
 -9 0 5 13.87 1.71
 9 0 -5 12.21 1.61
 -9 0 -5 11.98 1.61
 9 0 -6 180.23 6.37
 -9 0 6 197.58 6.39
 9 0 6 189.53 6.22
 9 0 7 259.28 7.32
 9 0 7 276.65 7.46
 -9 0 7 271.15 7.51
 -9 0 -7 277.36 7.02
 9 0 -7 262.56 7.82
 -9 -1 0 0.08 0.12
 -9 1 0 0.25 0.1
 -9 -1 0 0.2 0.18
 9 -1 0 0.07 0.16
 9 1 0 0.19 0.17
 9 -1 0 0.05 0.13
 -9 1 0 0.34 0.24
 -9 -1 0 0.36 0.25
 9 1 0 0.27 0.24
 9 1 -1 1122.53 10.44
 9 -1 -1 1123.15 11.62
 -9 -1 1 1222.92 10.77
 9 -1 -1 1195.13 8.64
 9 -1 1 1165.48 11.77
 9 1 1 1187.24 10.28
 9 1 -1 1234.47 12.01
 9 -1 -1 1183.96 12.53
 9 1 1 1165.6 13.17
 -9 -1 1 1132.52 9.27
 -9 -1 1 1166.56 11.86
 -9 1 -1 1104.97 7.96
 9 1 -1 1167.62 11.77
 9 -1 1 1144.26 10.67
 -9 -1 1 1178.58 11.22
 -9 1 1 1263.29 12.3
 -9 1 1 1196.82 11.28
 -9 1 -1 1208.88 12.83
 -9 -1 -1 1243.14 13.13
 9 1 -2 349.14 6.88
 9 -1 -2 335.81 6.26
 -9 -1 -2 320.23 4.35
 -9 -1 2 316.57 5.46
 9 -1 -2 325.21 6.85
 9 1 -2 312.16 6.13
 9 1 2 328.5 5.9
 9 -1 2 323.48 7.39
 9 -1 -2 311.61 6.16
 9 1 2 327.75 7.18
 9 1 -2 330.34 5.66
 -9 1 -2 350.33 7.31
 -9 1 2 285.06 5.12
 -9 -1 -2 341.46 7.17
 -9 -1 2 314.52 6.45
 -9 -1 -2 313.92 6.07
 -9 1 -2 299.03 5.49
 -9 1 2 339.65 6.24
 -9 1 2 303.96 6.62
 -9 -1 2 311.32 5.86
 9 1 -2 292.35 5.7
 -9 -1 2 342.84 5.75
 -9 1 2 305.58 4.75
 9 1 2 332.45 4.49
 9 -1 2 330.71 5.7
 -9 1 3 1.2 0.5
 -9 -1 3 1.89 0.57
 9 1 -3 1.31 0.47
 9 -1 -3 1.6 0.54
 9 -1 3 1.35 0.46
 9 -1 -3 1.37 0.51
 9 -1 3 1.83 0.59
 9 1 3 1.77 0.55
 9 -1 3 1.74 0.48
 -9 1 -3 2.38 0.63
 -9 1 3 1.35 0.42
 9 1 -3 1.22 0.37
 -9 -1 -3 1.31 0.47
 -9 1 -3 1.52 0.48
 -9 -1 -3 1.45 0.48
 -9 -1 3 1.41 0.49
 9 1 4 362.62 7.73
 9 1 4 334.47 7.66
 9 -1 4 347.44 8.02
 -9 1 4 333.29 8.3
 -9 -1 -4 317.99 7.48
 -9 1 -4 313.1 7.25
 9 1 -4 341.9 8.18
 9 -1 -4 359.54 8.21
 -9 -1 4 345.79 7.93
 -9 -1 -4 343.06 7.51
 -9 1 -4 325.31 7.16
 -9 -1 4 290.34 7
 9 -1 -4 321.76 8.02
 9 -1 4 329.46 6.8
 9 1 5 15.1 1.69
 9 1 5 12.84 1.58
 9 -1 5 14.32 1.7
 9 1 -5 13.06 1.7
 9 -1 -5 12.19 1.62
 9 -1 5 14.05 1.67
 -9 -1 -5 14.45 1.57
 -9 1 -5 13.53 1.47
 -9 1 5 12.42 1.63
 -9 -1 5 14.29 1.7
 -9 -1 -5 12.55 1.63
 -9 1 -6 86.42 3.77
 -9 -1 -6 94.39 4.1
 -9 -1 -6 91.67 4.54
 9 -1 6 94.68 4.32
 9 1 6 99.8 4.52
 -9 -1 6 95.89 4.41
 -9 1 6 87.49 4.35
 9 1 6 88.14 4.12
 9 -1 -6 86.18 4.48
 9 1 -6 90.42 4.61
 -9 1 -6 96.77 4.17
 -9 1 -7 230.77 6.31
 9 -1 -7 254.91 7.79
 9 1 -7 253.09 7.81
 9 -1 7 267.01 7.29
 9 1 7 274.4 7.43
 -9 1 7 252.64 7.31
 -9 -1 7 260.46 7.28
 9 -1 7 260.98 7.34
 -9 1 -7 240.65 6.3
 -9 -2 0 0.24 0.18
 -9 -2 0 0.03 0.16
 -9 2 0 0.18 0.18
 9 -2 0 0.08 0.18
 9 2 0 0.13 0.11
 -9 2 0 0.23 0.21
 9 -2 0 0.03 0.11
 9 2 0 0.12 0.16
 9 2 -1 873.81 8.25
 9 -2 -1 869.34 11.12
 -9 -2 -1 931.01 11.82
 -9 -2 1 917.96 10.93
 9 2 1 926.88 8.3
 9 2 -1 986.07 10.69
 9 -2 1 896.97 12.01
 9 2 1 916.71 11.22
 -9 -2 1 928.75 7.5
 -9 2 1 871.21 9.54
 -9 2 -1 949.63 11.28
 9 2 -1 904.89 10.72
 9 -2 1 939.62 10.61
 -9 -2 -1 798.39 7.37
 -9 2 1 895.69 10.69
 -9 -2 1 924.67 9.32
 -9 -2 -1 942.85 9.96
 9 -2 1 913.69 4.66
 9 -2 -1 981.94 8
 -9 -2 -2 120.13 3.14
 -9 -2 2 126.85 3.68
 9 2 -2 127.14 3.69
 9 -2 -2 112.12 4.27
 9 -2 2 126.87 3.84
 9 2 2 127.96 3.53
 9 -2 2 120.44 4.05
 9 2 2 120.86 4.4
 9 2 -2 118.49 3.31
 9 -2 2 138.94 4.87
 -9 2 -2 119.58 4.22
 -9 2 2 112.59 2.96
 -9 -2 -2 124.25 4.37
 -9 -2 2 117.54 3.74
 -9 -2 2 122.91 3.12
 9 2 -2 119.66 3.87
 -9 2 2 116.48 2.71
 9 -2 -2 134.08 4.01
 9 2 -2 120.07 4.17
 -9 -2 2 108.99 3.5
 -9 -2 -2 122.98 3.99
 -9 -2 -3 136.35 3.99
 -9 -2 3 155.08 4.7
 9 -2 -3 137.84 4.96
 9 -2 3 151.33 4.79
 9 2 3 151.04 4.54
 9 2 3 140.32 4.88
 9 -2 3 149.81 5.17
 -9 -2 -3 157.3 4.96
 -9 2 -3 144.66 4.61
 -9 -2 -3 149.82 4.86
 -9 2 3 153.84 5.36
 9 2 -3 150.64 5.25
 9 -2 -3 159.74 5.06
 -9 -2 3 149.47 3.98
 -9 2 3 145.85 4.37
 9 -2 3 156.4 4.5
 -9 2 4 732.06 12.91
 9 2 4 722.78 11.11
 9 -2 4 783.59 11.4
 -9 -2 -4 757.16 11.39
 9 -2 4 796.15 12.17
 9 -2 -4 844.99 12.92
 9 2 -4 737.39 12.74
 -9 2 4 785.48 10.54
 9 2 4 862.82 11.94
 -9 -2 4 778.53 11.59
 9 -2 4 742.45 10.33
 -9 -2 4 718.26 11.26
 -9 -2 -4 797.61 11.31
 -9 2 -4 794.09 11.25
 -9 -2 -5 49.63 3.08
 9 2 5 49.1 2.98
 9 -2 5 50.23 3.18
 -9 -2 5 57.22 3.28
 -9 2 -5 48.87 2.88
 9 2 -5 54.34 3.48
 9 -2 -5 55.73 3.5
 -9 2 5 52.92 3.45
 9 2 5 59.23 3.35
 9 -2 -5 46.56 3.29
 -9 2 -5 49.44 2.8
 -9 -2 -5 55.38 3.09
 9 -2 -6 137.26 5.73
 9 2 -6 138.45 5.76
 -9 2 6 138.06 5.51
 -9 -2 6 150.81 5.43
 9 2 6 153.52 5.73
 -9 -2 -6 145.24 4.99
 -9 2 -6 136.41 4.74
 9 -2 6 142 5.35
 9 2 6 131.73 4.86
 -9 -2 -6 153.15 5.64
 -9 2 -6 135.84 4.85
 9 -2 -7 78.73 4.37
 9 2 -7 80.53 4.43
 9 2 7 82.42 3.95
 9 -2 7 85.3 4.2
 -9 -2 -7 84.33 3.83
 -9 2 -7 79.87 3.58
 -9 2 7 76.01 4.06
 -9 2 -7 85.27 3.89
 9 -3 0 0.06 0.2
 -9 3 0 0.24 0.2
 9 3 0 0.03 0.15
 -9 -3 0 0.05 0.15
 -9 3 0 0.09 0.14
 9 -3 0 0.06 0.16
 -9 -3 0 0.14 0.17
 -9 -3 -1 633.27 7.59
 9 -3 -1 747.27 10.71
 9 -3 1 737.8 10.41
 9 -3 1 772.14 10.49
 9 3 1 736.28 6.45
 -9 -3 -1 740.39 10.54
 9 3 1 692.77 10.57
 9 -3 1 745.65 11.26
 9 3 -1 744.79 9.15
 9 -3 -1 747.01 10.59
 9 3 1 774.41 10.13
 -9 -3 1 713.07 8.87
 -9 -3 -1 749.49 9.46
 -9 3 1 692.01 7.3
 -9 -3 1 826.55 5.86
 9 -3 -1 779.56 7.88
 -9 3 -1 787.61 10.31
 -9 3 1 756.4 8.75
 -9 3 1 734.8 9.99
 -9 -3 -2 160.63 4.08
 9 -3 -2 181.88 4.77
 -9 -3 2 176.5 3.41
 9 -3 -2 172.19 5.52
 9 -3 2 173.07 5.03
 9 3 -2 164.2 5.31
 9 -3 2 168.63 5.42
 9 3 -2 178.44 4.02
 -9 -3 2 181.29 4.77
 -9 -3 2 176.19 5.03
 9 -3 2 179.75 4.88
 -9 3 2 177.15 3.51
 -9 3 -2 162.44 4.94
 -9 3 -2 159.84 5.13
 -9 3 2 171.43 4.84
 9 3 -3 41.94 2.87
 9 -3 -3 45.91 2.75
 -9 -3 -3 42.65 2.29
 -9 -3 3 39.54 2.31
 9 -3 -3 39 2.65
 9 3 3 42.76 2.7
 -9 3 3 46.2 3.01
 9 3 3 43.18 2.37
 9 -3 3 44.46 2.84
 -9 -3 -3 40.87 2.58
 -9 3 3 39.37 2.39
 -9 -3 3 41 2.49
 9 3 3 41.09 2.54
 9 -3 3 39.67 2.37
 -9 3 -3 41.81 2.49
 -9 -3 -3 42.67 2.61
 -9 -3 4 791.27 11.25
 9 -3 -4 773.32 12.61
 9 -3 4 824.86 11.99
 9 -3 4 770.56 12.68
 9 3 4 772.94 11.82
 -9 3 -4 791.46 11.47
 -9 -3 4 775.04 11.9
 -9 3 -4 789.59 11.17
 9 -3 -4 845.2 12.8
 -9 3 4 767.22 13.18
 9 -3 4 771.07 10.97
 -9 3 4 798.47 10.9
 9 3 5 103.33 4.33
 9 3 -5 103.07 4.95
 -9 -3 -5 107.75 4.6
 9 -3 5 94.23 4.28
 -9 -3 5 107.11 4.39
 9 -3 5 118.92 4.93
 -9 3 -5 101.81 4.05
 -9 -3 -5 115.5 4.44
 9 -3 5 109.7 4.53
 9 -3 -5 107.01 4.98
 9 3 5 94.6 4.01
 -9 -3 5 98.4 4.46
 -9 -3 -6 209.58 6.63
 -9 -3 6 176.2 6.3
 9 -3 6 207.06 6.67
 9 -3 -6 206.65 7.09
 9 3 -6 189.27 6.97
 9 3 6 195.61 5.94
 -9 -3 -6 219.36 6.14
 -9 3 -6 194.26 5.6
 9 -3 6 212.48 6.54
 -9 3 -6 201.27 5.88
 9 3 6 217.53 6.18
 9 3 7 102.85 4.28
 -9 3 7 93.12 4.55
 -9 3 -7 93.42 4.03
 9 -3 7 100.39 4.54
 -9 -3 -7 99.7 4.68
 9 3 7 101.39 4.23
 9 3 -7 99.42 4.95
 -9 3 -7 95.19 3.87
 -9 -3 -7 113.5 4.45
 9 -4 0 0.7 0.19
 9 -4 0 0.03 0.18
 9 4 0 0.07 0.16
 9 -4 0 0.6 0.37
 -9 -4 0 0.11 0.16
 9 4 0 0.14 0.18
 -9 4 0 0.17 0.16
 9 -4 1 215.48 5.82
 -9 4 1 205.73 4.63
 -9 4 -1 243.65 5.8
 9 4 -1 211.45 5.61
 9 4 1 217.75 5.99
 -9 -4 -1 217.59 4.9
 9 4 -1 199.76 4.72
 9 -4 -1 242.09 6.4
 9 -4 1 199.04 6.03
 -9 4 1 222.57 3.72
 -9 4 -1 242.89 5.66
 9 4 1 210.69 5.3
 9 -4 -1 214.77 6.08
 -9 4 -1 206.16 5.82
 -9 4 1 208.24 5.5
 -9 -4 1 209.51 5.51
 9 -4 -1 241.23 4.77
 -9 -4 -2 130.98 3.98
 9 -4 2 144.12 4.75
 -9 4 2 136.62 4.45
 9 4 2 138.14 4.66
 -9 4 -2 151.48 4.77
 -9 -4 -2 146.62 4.74
 -9 -4 2 141.44 4.46
 9 -4 2 130.68 4.48
 9 -4 -2 126.12 4.75
 9 -4 -2 149.33 4.47
 9 -4 2 149.01 5.24
 9 4 -2 135.45 3.54
 -9 -4 -2 130.08 4.56
 9 4 2 139.75 5.02
 9 4 -2 129.92 4.53
 -9 -4 3 279.63 6.71
 9 4 -3 265.19 7.33
 -9 -4 -3 304.37 6.47
 -9 -4 3 300.79 6.12
 9 -4 -3 255.79 6.94
 9 -4 3 266.63 6.41
 9 -4 3 290.5 6.9
 9 4 3 299.83 7.06
 -9 -4 -3 281.26 7.02
 -9 4 3 279.1 6.46
 9 4 -3 245.13 6.28
 9 -4 3 289.08 7.38
 -9 4 -3 291.55 6.71
 9 4 3 269.71 6.42
 -9 4 -3 278.82 6.97
 -9 -4 -3 290.81 7.07
 9 -4 -4 970.56 14.28
 -9 4 4 964.33 14.07
 9 -4 4 1037.83 13.61
 9 4 4 1007.4 13.35
 -9 4 -4 1000.17 12.58
 9 4 -4 1050.34 15.46
 -9 -4 -4 941.65 12.63
 -9 -4 4 970.25 13.82
 -9 4 -4 966.13 12.94
 9 4 4 918.93 12.07
 -9 -4 -4 974.03 13.27
 9 -4 -4 1048.04 14.57
 9 -4 5 14.65 1.69
 -9 4 5 14.34 1.95
 9 4 5 14.15 1.62
 9 -4 -5 13.17 1.75
 9 -4 5 13.88 1.6
 -9 -4 5 12.46 1.68
 -9 4 -5 14 1.54
 9 -4 5 15.68 1.81
 9 4 5 13.12 1.45
 9 -4 -5 14.91 1.89
 -9 4 -5 12.78 1.44
 -9 -4 -5 18.05 1.76
 -9 -4 -6 87.45 4.29
 -9 -4 6 74.89 4.11
 9 4 6 86.13 3.74
 9 -4 -6 83.27 4.53
 -9 4 -6 82.01 3.58
 -9 -4 -6 88.67 3.92
 -9 4 6 82.09 4.51
 9 -4 6 90.96 4.21
 9 -4 6 83.76 4.32
 9 4 6 81.75 3.81
 -9 4 -6 80.09 3.77
 9 4 7 73.29 3.59
 9 4 7 62.14 3.25
 -9 4 7 62.41 3.69
 -9 4 -7 62.24 3.23
 9 -4 7 68.88 3.91
 -9 -4 -7 71.13 3.49
 -9 4 -7 64.51 3.18
 9 -4 7 64.27 3.65
 9 4 -7 59.83 3.96
 9 5 0 0.41 0.25
 -9 5 0 0.12 0.16
 9 5 0 0.39 0.28
 -9 5 0 0.25 0.18
 9 -5 0 -0.03 0.21
 -9 -5 0 0.05 0.2
 -9 5 -1 513.76 9.05
 -9 -5 -1 530.63 8.33
 9 -5 -1 545.13 9.97
 9 5 1 507.79 8.46
 9 -5 1 549.71 9.61
 9 -5 1 515.42 10
 9 -5 1 508.21 9.45
 -9 5 1 516.67 7.39
 -9 5 -1 553.85 8.76
 -9 5 -1 528.51 8.11
 -9 -5 -1 531.9 8.79
 -9 -5 1 513.01 8.48
 9 5 -1 531.71 9.21
 -9 -5 -1 496.79 8.95
 9 5 -1 465.47 7.11
 9 5 1 510.98 8.37
 9 -5 -2 566.33 9.39
 -9 -5 -2 538.03 8.58
 9 -5 -2 535.97 9.77
 9 5 2 530.23 8.85
 9 -5 2 581.51 9.88
 9 5 2 565.1 9.52
 9 -5 2 526.06 9.38
 -9 -5 2 577.65 9.37
 -9 -5 -2 551.17 9.39
 -9 5 -2 558.9 9.09
 9 -5 2 573.13 10.27
 -9 5 -2 550.84 8.88
 -9 5 -2 533.66 9.2
 -9 -5 -2 535.96 9.3
 9 5 2 542.23 9.65
 9 5 -2 573.57 10.18
 9 -5 -3 61.19 3.37
 -9 -5 -3 59.44 3.02
 -9 5 -3 57.56 2.96
 9 -5 -3 59.52 3.46
 9 -5 3 58.46 3.17
 9 5 -3 56.98 3.46
 9 5 3 60.41 3.22
 -9 -5 -3 60.11 3.24
 9 5 -3 52.18 3.03
 9 5 3 54.35 2.89
 -9 5 -3 56.47 3.04
 -9 5 3 54.43 2.96
 -9 -5 -3 59.32 3.18
 9 -5 3 61.97 3.52
 9 -5 3 56.99 3.12
 -9 5 -4 552.43 9.29
 -9 5 4 559.44 11.18
 9 -5 -4 557.89 10.72
 9 -5 4 529.15 9.86
 9 5 4 554.49 10.01
 -9 -5 -4 530.57 9.99
 9 -5 4 515.28 9.68
 -9 5 4 511.52 9.25
 -9 -5 4 514.18 10.28
 9 5 4 514.63 8.86
 9 -5 4 538.96 10.5
 9 5 -4 554.63 11.07
 -9 -5 -4 526.1 9.79
 9 5 5 36.03 2.56
 9 5 -5 35.42 2.95
 -9 -5 -5 39.51 2.84
 9 -5 5 34.51 2.71
 -9 5 5 34.33 2.48
 -9 5 -5 32.12 2.32
 9 -5 -5 32.69 2.71
 -9 5 5 32.03 2.88
 -9 -5 -5 36.01 2.5
 9 -5 5 34.45 2.62
 -9 -5 5 37.46 2.83
 9 -5 6 67.04 3.63
 -9 5 6 61.27 4.05
 -9 -5 -6 68.43 3.74
 9 5 -6 67.09 4.21
 -9 -5 6 53.8 3.54
 -9 5 -6 57.73 3.13
 9 5 6 59.19 3.08
 9 -5 -6 62.5 3.94
 9 -5 6 67.57 3.84
 9 5 6 63.99 3.46
 -9 -5 -6 67.64 3.4
 -9 5 -6 61.13 3.13
 -9 -5 7 127.5 5.47
 9 5 7 140.47 4.72
 -9 5 -7 142.35 4.73
 -9 -5 -7 156.46 5.21
 -9 -5 -7 169.99 5.94
 9 -5 7 151.14 5.5
 9 5 -7 152.42 6.25
 -9 5 7 143.93 5.83
 9 -5 7 178.14 6.34
 9 -6 0 0.04 0.18
 -9 6 0 0.03 0.11
 -9 6 0 -0.03 0.13
 -9 6 0 0.1 0.2
 9 6 0 0.03 0.12
 9 6 0 0.15 0.18
 -9 -6 0 0.12 0.21
 -9 -6 -1 434.31 8.29
 9 -6 -1 463.42 9.47
 9 -6 1 461.72 9.63
 -9 6 1 432.61 7.18
 9 -6 1 453.86 9.09
 9 6 1 423.71 7.76
 -9 6 -1 430.41 8.31
 -9 -6 1 415.16 7.93
 -9 -6 -1 446.62 8.34
 9 6 -1 420.41 8.83
 9 6 1 476.07 8.96
 -9 6 -1 468.4 8.32
 -9 -6 -1 432.19 8.67
 -9 6 -1 480.66 7.98
 9 6 -1 433.88 7.13
 9 6 1 431.88 7.99
 9 -6 1 437.4 9.02
 -9 -6 -2 196.77 5.48
 9 -6 -2 176.65 5.58
 9 6 2 194.46 5.72
 9 6 -2 183.8 5.88
 9 -6 2 190.66 5.91
 9 6 2 196.01 5.77
 -9 6 2 174.47 5.44
 9 -6 2 183.78 6.07
 -9 6 -2 181 5.27
 -9 -6 -2 198.28 5.85
 -9 -6 -2 185.08 5.46
 -9 6 -2 203.07 5.55
 -9 6 -2 187.39 5.69
 9 6 2 199.42 5.56
 9 -6 -3 203.77 6.54
 9 6 -3 197.04 5.97
 9 -6 3 215.94 6.29
 9 6 3 211.53 6.19
 -9 6 -3 211.86 5.8
 -9 -6 -3 213.74 6.19
 9 -6 3 197.79 6.15
 -9 -6 3 195.26 5.96
 -9 -6 -3 201.25 5.84
 9 6 3 220.31 6.31
 -9 6 3 196.08 5.72
 -9 -6 -3 221.44 6.02
 -9 -6 -4 404.27 8.6
 -9 6 -4 431.2 8.31
 9 -6 4 464.32 9.41
 -9 6 -4 434.06 8.47
 9 6 4 452.03 9.26
 9 -6 4 427.65 8.72
 9 6 4 390.25 7.9
 9 6 -4 418.1 9.3
 -9 -6 4 396.04 9.04
 9 -6 4 459.95 9.66
 9 6 -4 472.42 10.62
 -9 6 4 424.94 8.69
 9 -6 -4 393.9 9.3
 9 6 5 27.75 2.29
 9 6 -5 24.86 2.52
 9 6 5 27.57 2.08
 -9 6 5 26.31 2.22
 9 -6 5 23.73 2.16
 -9 6 -5 22.86 1.94
 -9 -6 -5 28.01 2.38
 -9 -6 5 28.12 2.54
 9 -6 5 26.03 2.26
 -9 -6 -6 103.44 4.66
 9 6 6 99.71 3.93
 -9 -6 6 105.7 4.87
 9 -6 6 94.41 4.42
 -9 -6 -6 110.01 4.38
 -9 6 -6 104.41 4.1
 -9 6 6 98.98 5.2
 9 -6 -6 96.72 4.89
 9 6 -6 102.48 5.13
 9 -6 6 105.41 4.84
 9 6 6 101.7 4.3
 -9 -6 -7 123.05 4.61
 9 6 -7 114.92 5.39
 -9 -6 -7 120.44 5
 9 -7 0 0.52 0.44
 -9 -7 0 0.22 0.32
 -9 7 0 0.06 0.17
 9 7 0 0.25 0.23
 -9 7 0 0.06 0.14
 9 7 0 0.03 0.18
 9 -7 1 745.11 12.47
 9 -7 -1 782.85 12.87
 -9 7 -1 748.75 11.26
 9 -7 1 808.24 12.38
 -9 -7 -1 743.91 11.57
 -9 7 -1 759.68 10.67
 -9 7 1 781.97 10.22
 9 7 -1 754.3 12.27
 9 7 1 753.22 11.44
 9 7 1 818.24 11.37
 -9 -7 1 736.49 11
 -9 -7 -1 791.96 11.5
 -9 -7 -1 756.35 11.58
 -9 7 -1 816.99 10.63
 -9 7 1 725.36 10.91
 9 7 1 772.79 10.95
 9 7 -1 769.11 10.12
 9 -7 1 809.37 13.19
 9 -7 2 42.31 2.84
 -9 7 -2 39.21 2.53
 -9 7 2 36.15 2.56
 9 -7 2 40.53 2.78
 9 7 -2 32.32 2.58
 -9 -7 -2 44.76 2.79
 -9 7 -2 44.59 2.72
 9 -7 -2 34.32 2.52
 9 7 2 36.95 2.47
 -9 -7 2 44.27 2.76
 -9 -7 -2 41.1 2.71
 9 -7 3 0.36 0.36
 -9 -7 3 0.39 0.34
 -9 -7 -3 0.63 0.42
 -9 7 -3 0.29 0.26
 -9 -7 -3 0.36 0.31
 9 7 3 1.12 0.44
 9 -7 3 0.39 0.33
 9 7 -3 2.19 0.7
 -9 7 -3 0.2 0.25
 9 7 3 0.75 0.42
 9 7 3 0.44 0.29
 -9 7 -3 0.48 0.32
 9 -7 -3 0.37 0.32
 9 -7 3 0.81 0.44
 9 -7 4 204.25 6.74
 -9 -7 -4 216.55 6.5
 -9 7 -4 207.62 6
 9 -7 -4 201.8 6.73
 -9 7 4 196.23 6.03
 9 -7 4 215.89 6.51
 9 7 4 238.09 6.58
 9 7 4 199.51 5.66
 9 7 -4 192.98 6.58
 -9 7 -4 214.26 6.19
 -9 -7 -4 215.79 6.17
 9 -7 4 203.44 6.24
 9 7 -4 214.06 7.23
 -9 -7 4 231.96 6.98
 9 -7 5 17.62 1.89
 9 7 5 14.88 1.75
 -9 7 -5 16.03 1.67
 9 7 5 16.58 1.61
 -9 -7 -5 18.24 1.94
 -9 7 -5 18.06 1.83
 9 -7 5 16.06 1.78
 -9 -7 -5 17.81 1.81
 -9 7 5 15.53 1.71
 9 -7 -5 16.61 1.96
 9 -7 5 17.94 2
 -9 7 -6 100.91 4.15
 9 7 6 93.64 3.88
 -9 7 -6 101.06 4.22
 9 -7 6 92.81 4.34
 -9 -7 -6 104.56 4.31
 -9 -7 -6 117.74 4.97
 9 -7 -6 94.87 4.8
 -9 7 6 86.42 4.87
 9 7 6 105.37 4.33
 9 8 0 0.81 0.4
 -9 -8 0 0.03 0.25
 -9 8 0 0.16 0.21
 9 -8 0 0.63 0.43
 9 8 -1 588.58 11.11
 9 8 1 590.31 10.27
 -9 8 -1 605 10.27
 -9 8 1 555.07 9.85
 9 -8 1 579.96 11.1
 9 -8 1 614.81 11.61
 -9 -8 1 593.74 10.2
 -9 -8 -1 598.9 10.28
 -9 8 -1 619.64 10.08
 9 8 1 624.74 10.38
 -9 -8 -2 125.22 4.75
 9 -8 -2 109.65 4.62
 9 -8 2 122.13 4.94
 -9 8 -2 126.35 4.8
 9 8 2 127.39 4.85
 -9 -8 -2 121.74 4.75
 9 -8 2 115.31 4.78
 -9 -8 2 117.34 4.62
 -9 -8 -2 128.75 4.9
 9 -8 2 119.45 5.18
 -9 8 -2 122.33 4.58
 -9 8 2 118.45 4.55
 9 8 2 126.87 4.7
 9 -8 3 81.07 4.35
 -9 -8 -3 86.2 4.05
 -9 8 -3 75.79 3.58
 -9 -8 -3 84.45 4.01
 9 -8 3 82.95 4.06
 9 -8 3 85.5 4.16
 9 8 3 86.91 4.09
 -9 -8 -3 77.96 3.69
 -9 8 3 79.09 3.84
 9 8 3 90.8 3.91
 9 8 -3 73.6 3.91
 -9 -8 3 82.14 4.02
 -9 8 -3 77.23 3.79
 -9 8 -3 81.91 3.8
 9 8 3 79.95 3.62
 -9 8 -4 251.76 6.87
 -9 -8 -4 245.06 6.65
 9 -8 -4 243.97 7.54
 9 -8 4 244.8 7.13
 9 -8 4 264.98 7.37
 9 8 4 261.13 7.03
 -9 -8 -4 260.37 7.15
 9 8 -4 245.33 7.28
 -9 -8 4 262.63 7.62
 9 8 4 236.95 6.16
 -9 8 -4 247.63 6.48
 9 -8 4 241.07 7.51
 -9 8 4 243.87 6.68
 -9 8 -4 250.59 6.74
 9 -8 -5 29.68 2.62
 9 8 -5 26.56 2.76
 9 8 5 31.79 2.43
 -9 8 -5 27.89 2.33
 -9 -8 -5 33.15 2.6
 9 -8 5 28.29 2.72
 -9 -8 5 28.34 2.58
 -9 8 -5 31.78 2.4
 -9 -8 -5 35.53 2.6
 -9 8 5 30.63 2.75
 -9 8 5 28.89 2.35
 9 -8 5 30.02 2.46
 9 8 6 102.51 4.22
 9 -8 -6 98.03 4.82
 -9 -8 -6 113.47 4.84
 9 8 -6 94.43 5.05
 -9 -8 -6 119.05 4.62
 -9 8 6 116.34 5.48
 -9 8 -6 111.26 4.44
 9 -8 6 107.41 5.14
 -9 -8 6 83.57 4.85
 9 -8 6 102.99 4.7
 9 9 0 0.43 0.33
 -9 -9 0 0.14 0.29
 9 -9 0 0.33 0.36
 -9 9 0 0.03 0.18
 9 9 0 0.03 0.15
 -9 9 0 -0.03 0.22
 -9 -9 -1 480.08 9.35
 -9 -9 1 485.38 9.33
 -9 -9 -1 466.97 9.65
 -9 9 1 419.78 8.74
 9 9 1 493.43 9.29
 9 -9 1 473.81 10.41
 -9 9 -1 459.14 9.01
 -9 9 -1 442.83 8.86
 9 -9 1 477.61 10.22
 9 9 1 441.07 8.9
 9 9 -1 444.34 9.59
 9 -9 -1 458.25 10.19
 9 -9 2 170.11 6.01
 -9 9 -2 159.98 5.34
 9 -9 2 154.64 5.74
 -9 -9 2 164.07 5.49
 -9 -9 -2 172.5 5.76
 9 9 2 164.76 5.34
 -9 9 2 146.54 5.14
 -9 -9 -2 153.89 5.3
 -9 9 -2 153.29 5.28
 -9 -9 -2 169.15 5.72
 9 -9 -2 142.29 5.39
 9 9 -2 149.08 5.78
 9 9 2 155.39 5.28
 9 -9 -3 4.48 1.06
 -9 9 -3 4.02 0.88
 9 -9 3 6.74 1.21
 9 9 3 4.22 0.95
 -9 9 -3 3.99 0.87
 -9 -9 -3 3.67 0.85
 9 9 3 3.96 0.86
 9 9 -3 3.85 0.92
 9 9 3 3.49 0.79
 -9 9 3 4.27 0.94
 -9 -9 -3 4.35 0.96
 -9 -9 3 4.39 0.98
 9 -9 3 5.02 1.11
 9 -9 3 3.8 0.91
 9 -9 -4 195.51 6.76
 9 -9 4 210.18 6.67
 -9 -9 -4 203.04 6.12
 -9 -9 -4 217.83 6.64
 -9 9 -4 199.75 6.19
 -9 -9 4 187.97 6.46
 9 -9 4 212.82 7.23
 9 9 4 203.63 5.96
 -9 9 -4 191.71 5.86
 -9 9 4 191.33 6.02
 9 -9 4 186.72 6.35
 9 9 4 203.86 5.82
 -9 9 -5 7.66 1.19
 9 -9 5 8.7 1.36
 -9 9 5 6.03 1.09
 -9 -9 -5 8.74 1.35
 9 9 5 8.01 1.13
 -9 9 -5 7.49 1.26
 -9 -9 -5 9.14 1.32
 9 -9 6 39.87 3.12
 -9 9 -6 33.13 2.63
 9 -9 6 33.34 2.77
 9 -10 0 0.04 0.26
 9 10 0 0.33 0.28
 -9 10 0 0.03 0.16
 -9 -10 0 0.18 0.22
 -9 10 0 0.03 0.2
 -9 -10 1 118.53 4.71
 -9 -10 -1 119.24 4.75
 9 10 1 122.62 4.76
 9 10 -1 116.03 4.99
 -9 10 -1 119.07 4.7
 9 -10 1 114.3 5.1
 9 10 2 123.86 4.73
 -9 -10 -2 145.93 5.47
 -9 -10 -2 134.85 5.16
 9 -10 -2 119.04 5.05
 -9 10 -2 132.61 5.05
 -9 10 2 120.17 4.75
 -9 10 -2 126.04 4.84
 9 -10 2 118.14 5.41
 9 10 2 133.51 4.88
 -9 -10 2 138.18 5.16
 9 -10 2 138.09 5.53
 -9 -10 -3 145.63 5.43
 9 -10 -3 138.16 5.84
 -9 10 -3 145.35 5.22
 9 -10 3 141.17 5.51
 -9 10 3 120.54 4.89
 9 10 3 142.24 4.97
 9 10 -3 119.78 5.17
 9 10 3 135.32 4.81
 9 -10 3 132.19 5.47
 -9 10 -3 129.36 4.96
 -9 -10 -3 139.02 5.35
 -9 -10 3 129.8 5.3
 9 -10 4 340.96 8.64
 9 10 4 318.83 7.39
 9 10 -4 309.86 8.43
 9 10 4 289.01 7.12
 9 -10 4 312.49 8.2
 -9 10 -4 286.38 7.53
 -9 -10 -4 317.28 7.69
 -9 -10 4 342.49 8.71
 9 10 4 342.16 8.2
 9 -10 -4 292.78 8.47
 -9 10 -4 309.45 7.71
 -9 10 -4 305.71 7.55
 9 10 5 8 1.27
 -9 -10 5 9.47 1.53
 -9 10 -5 9.35 1.41
 -9 -10 -5 10.05 1.37
 -9 10 5 9.18 1.34
 9 -10 5 9.58 1.49
 -9 -10 -5 11.89 1.58
 -9 10 -5 9.88 1.39
 -9 -11 0 0.04 0.19
 -9 -11 0 -0.04 0.17
 -9 11 0 0.56 0.34
 9 -11 0 0.04 0.25
 9 11 0 -0.04 0.2
 -9 -11 -1 202.39 6.88
 -9 11 -1 211.43 6.45
 -9 11 1 181.69 5.84
 -9 11 -1 198.34 6.04
 9 -11 -1 200.63 6.87
 9 11 1 203.45 6.28
 9 11 1 187.34 5.87
 9 -11 1 210.78 6.98
 9 -11 1 188.26 6.83
 -9 -11 1 207.35 6.41
 -9 -11 -1 208.27 6.38
 -9 -11 -2 131.08 5.36
 -9 11 -2 127.68 5.01
 -9 11 -2 115.35 4.63
 -9 11 2 112.41 4.59
 9 11 -2 119.23 5.17
 9 11 2 113.44 4.48
 9 11 2 129.69 4.9
 9 -11 -2 108.37 4.81
 -9 -11 -2 124.96 5.09
 -9 -11 2 114.9 4.8
 9 -11 2 121.3 5.35
 9 -11 2 136.87 5.63
 -9 -11 -3 37.12 2.79
 9 -11 -3 40.04 3.23
 9 11 3 38.56 2.62
 -9 11 -3 38.99 2.78
 9 11 -3 34.76 2.83
 9 11 3 33.94 2.43
 9 -11 3 36.38 2.88
 -9 -11 3 39.14 2.95
 9 -11 3 40.17 3.04
 -9 -11 4 267.84 8.05
 -9 11 -4 253.28 7.06
 -9 -11 -4 271.14 7.5
 -9 -11 -4 255.91 6.92
 -9 11 -4 226.51 6.73
 9 11 4 239.31 6.31
 9 11 -4 255.86 7.62
 9 11 4 249.69 6.52
 -9 11 4 247.34 6.94
 9 -11 -4 245.46 8
 9 -11 4 267.21 7.71
 -9 -12 0 -0.04 0.22
 9 -12 0 0.05 0.31
 -9 -12 0 0.04 0.26
 -9 12 -1 112.53 5.06
 9 -12 1 133.29 5.64
 9 12 1 114.27 4.63
 9 12 -1 115.69 5.01
 -9 12 -1 114.1 4.72
 -9 12 1 114.42 4.62
 9 -12 -1 122.26 5.51
 -9 -12 -1 119.8 5.22
 -9 12 -2 37.59 2.8
 -9 12 -2 34.45 2.58
 -9 12 2 35.48 2.59
 9 -12 -2 36.9 3.11
 9 12 2 36.36 2.63
 -9 -12 -2 42.38 3.06
 -9 -12 2 35.14 2.76
 9 12 -2 31.84 2.76
 9 12 2 31.71 2.39
 9 -12 2 39.05 3.06
 9 -12 2 36.7 3.01
 9 -12 3 25.71 2.49
 9 12 -3 24.3 2.38
 9 12 3 25.27 2.09
 -9 -12 -3 23.69 2.27
 -9 -12 3 24.19 2.33
 -9 -12 -3 28.89 2.54
 9 -12 -3 28.63 2.72
 -9 12 3 25.37 2.19
 9 -12 3 26.69 2.53
 -9 12 -3 23.84 2.2
 9 12 3 25.62 2.15
 -9 12 -3 25.82 2.27
 -9 13 0 0.07 0.21
 9 -13 0 0.14 0.3
 9 13 0 -0.04 0.17
 -9 -13 0 -0.04 0.25
 -9 13 -1 158.6 5.59
 -9 13 1 155.48 5.51
 9 -13 1 169.8 6.68
 9 -13 -1 173.79 6.76
 -9 -13 1 182.6 6.33
 -9 -13 -1 181.2 6.12
 9 13 1 165.36 5.53
 9 13 -1 177.92 6.27
 9 -13 1 179.37 6.61
 9 13 2 43.24 2.89
 -9 13 -2 39.47 2.77
 -9 13 -2 43.48 3.11
 -9 -14 0 0.09 0.28
 10 0 0 12.25 1.18
 -10 0 0 11.01 1.24
 10 0 0 12.12 1.36
 -10 0 0 9.73 0.78
 -10 0 1 334.88 6.39
 -10 0 -1 331.85 7.05
 10 0 -1 324.44 6.39
 -10 0 1 365.59 6.79
 -10 0 1 317.5 4.42
 10 0 1 338.3 6.28
 -10 0 -1 326.08 5.11
 10 0 1 383.97 7.78
 10 0 -2 1.67 0.42
 -10 0 2 1.81 0.49
 10 0 -2 4.01 0.79
 -10 0 2 1.78 0.59
 10 0 2 1.75 0.49
 10 0 2 2.36 0.67
 10 0 -2 2.09 0.52
 -10 0 -2 1.51 0.42
 10 0 -2 2.96 0.62
 -10 0 2 2 0.49
 10 0 3 1070.7 12.41
 10 0 -3 961.4 13.13
 10 0 -3 1113.8 13.82
 -10 0 -3 1062.34 13.48
 -10 0 3 973.81 13.38
 10 0 3 1047.41 13.66
 10 0 -4 51.74 3.27
 -10 0 4 54.96 3.3
 10 0 -4 46.91 3.11
 -10 0 -4 54.61 3.06
 10 0 4 51.66 3.1
 -10 0 -5 25.74 2.08
 10 0 5 23.63 2.16
 -10 0 5 22.45 2.19
 10 0 5 29.91 2.45
 10 0 6 23.11 2.2
 10 0 6 28.8 2.43
 -10 0 6 26.78 2.4
 -10 0 -6 25.09 2.01
 -10 0 -7 82.45 3.84
 -10 0 -7 82.37 3.62
 10 1 0 1670.2 15.6
 10 -1 0 1678.69 16.07
 -10 1 0 1627.81 14.91
 -10 -1 0 1588.19 14.86
 10 -1 0 1564.51 14.32
 -10 -1 0 1390.83 10.73
 -10 1 0 1388.84 14
 -10 -1 -1 3.27 0.59
 -10 -1 1 3.94 0.73
 10 1 -1 3.49 0.67
 -10 1 1 3.46 0.66
 -10 1 -1 3.42 0.72
 -10 -1 -1 2.86 0.68
 10 1 1 3.67 0.63
 10 -1 1 3.52 0.69
 -10 -1 1 3.9 0.63
 10 1 -1 3.11 0.61
 10 -1 -1 3 0.64
 -10 1 1 3.59 0.71
 -10 -1 1 3.98 0.68
 10 1 -1 3.13 0.67
 10 -1 1 3.74 0.82
 10 1 1 4.12 0.81
 10 -1 -1 4.06 0.77
 10 1 -2 349.55 6.76
 -10 1 2 332.94 7.49
 -10 -1 2 352.61 6.25
 10 -1 2 352.84 6.84
 10 1 2 352.21 6.34
 -10 -1 2 360.62 6.11
 -10 -1 2 338.06 6.56
 -10 -1 -2 357.5 6.56
 10 1 -2 366.13 7.2
 -10 -1 -2 357.75 7.76
 -10 -1 2 366.96 7
 10 -1 2 352.26 6.45
 10 1 -2 344.16 6.33
 10 -1 2 361.64 8.08
 10 -1 -2 333.53 6.81
 10 1 -2 334.56 6.45
 10 -1 3 5.01 0.97
 10 1 3 4.81 0.93
 -10 -1 3 4.98 0.84
 10 -1 3 4.4 0.83
 10 1 3 5.21 0.87
 10 -1 -3 5.15 0.92
 10 -1 -3 5.34 1.01
 -10 1 -3 4.79 0.9
 -10 -1 -3 5.57 0.98
 -10 1 3 5.27 1.09
 -10 -1 -4 0.38 0.29
 -10 1 -4 0.18 0.23
 10 -1 4 0.35 0.29
 10 1 4 0.13 0.22
 10 -1 4 0.03 0.14
 10 1 4 -0.03 0.21
 -10 -1 -4 0.07 0.24
 10 1 -4 0.39 0.3
 -10 -1 4 0.07 0.22
 -10 1 5 0.82 0.47
 10 -1 5 0.95 0.45
 10 1 5 0.95 0.47
 10 1 5 0.73 0.46
 10 1 -5 0.85 0.48
 -10 -1 -5 0.88 0.41
 -10 1 -5 0.63 0.34
 10 -1 6 242.04 7.03
 10 -1 6 253.17 7.24
 -10 1 -6 233.62 6.45
 -10 1 -6 216.97 5.94
 -10 -1 -6 239.04 6.43
 -10 1 6 222.54 6.96
 -10 1 -7 3.26 0.74
 -10 -1 -7 3.59 0.76
 10 -1 7 5.36 1.07
 10 1 7 5.14 1.01
 -10 1 -7 3.91 0.83
 10 -2 0 4.4 0.85
 10 2 0 4.59 0.81
 10 2 0 3.75 0.76
 -10 2 0 3.98 0.77
 10 2 0 4.26 0.58
 -10 -2 0 3.91 0.78
 -10 -2 0 3.46 0.5
 -10 2 0 4.56 0.78
 -10 -2 0 4 0.64
 -10 -2 -1 289.88 5.75
 -10 -2 1 269.47 5.24
 10 -2 -1 279.9 6.57
 -10 2 1 286.08 5.77
 -10 2 -1 287.49 6.46
 10 -2 1 301.78 7.21
 10 2 1 301.77 6.74
 10 -2 -1 288 6.51
 10 2 -1 311.13 6.3
 10 2 1 284.49 4.93
 10 -2 1 292.82 6.49
 -10 -2 1 241.85 5.11
 -10 2 1 283.07 6.25
 10 -2 1 284.41 6.35
 -10 -2 -1 274.3 6.73
 10 -2 2 18.48 1.64
 10 2 2 18.49 1.39
 -10 2 -2 17.53 1.63
 -10 -2 -2 16.41 1.65
 -10 -2 2 14.25 1.31
 -10 -2 -2 17.74 1.54
 10 2 -2 17.71 1.52
 10 -2 2 18.26 1.56
 -10 2 2 17.58 1.57
 10 2 -2 17.55 1.42
 10 2 2 18.51 1.76
 10 -2 -2 17.2 1.62
 10 -2 2 18.58 1.88
 10 -2 -2 18.57 1.77
 -10 -2 2 16.54 1.52
 10 2 -2 20.3 1.72
 10 2 -3 558.79 10.43
 -10 2 3 578.97 9.03
 -10 2 -3 566.13 9.38
 -10 -2 -3 589.06 9.9
 10 -2 -3 555.52 10.14
 -10 2 3 578.87 11.39
 10 -2 3 608.67 10.58
 10 2 3 549.64 9.52
 -10 -2 -3 589.95 9.96
 10 -2 3 592.29 9.55
 -10 -2 3 562.62 9.19
 10 -2 -4 12.98 1.68
 -10 2 4 11.41 1.71
 10 2 -4 10.99 1.55
 10 -2 4 12.11 1.56
 10 2 4 10.82 1.38
 10 -2 4 13.26 1.56
 -10 -2 -4 13.05 1.51
 -10 2 -4 14.13 1.53
 -10 -2 -4 12.19 1.46
 10 2 -5 436.78 10.8
 10 -2 5 482.14 9.47
 -10 2 -5 474.5 9.08
 10 -2 -5 463.44 10.36
 -10 2 -5 454.4 8.56
 -10 -2 -5 486.72 9.27
 10 2 5 431.89 8.71
 10 -2 5 480.86 9.75
 10 -2 6 0.11 0.23
 10 2 6 0.73 0.42
 -10 2 -6 0.16 0.27
 -10 2 -6 0.12 0.18
 -10 -2 -7 31.67 2.35
 -10 2 -7 27.01 2.09
 10 -2 7 29.42 2.54
 -10 2 7 30.22 2.59
 -10 2 -7 29.54 2.3
 10 2 7 28.64 2.35
 10 -2 7 31.97 2.62
 -10 3 0 1109.37 13.16
 10 3 0 1088.77 13.04
 -10 -3 0 1135.71 11.37
 10 3 0 1120.36 12.38
 10 -3 0 1134.47 13.74
 -10 -3 0 1143.45 13.31
 10 3 1 31.1 2.22
 10 3 -1 27.3 1.95
 10 -3 -1 27.35 2.14
 10 -3 1 28.46 2.14
 -10 -3 -1 29.38 2.2
 -10 -3 1 27.5 2.03
 -10 3 -1 29.25 2.06
 -10 3 1 27.21 1.76
 -10 -3 -1 24.3 1.77
 -10 -3 1 26.72 1.78
 10 3 1 27.92 2
 10 -3 -1 30.4 2.19
 10 3 -1 27.93 1.88
 10 -3 1 27.98 2.11
 -10 3 1 28.46 2.03
 10 3 2 136.37 4.67
 10 3 -2 129.5 4.28
 10 -3 2 142.26 5.16
 -10 -3 -2 132.91 4.39
 -10 3 2 136.24 4.42
 10 -3 2 138.12 4.61
 -10 3 -2 148.36 4.75
 -10 3 -2 133 4.5
 10 -3 -2 124.43 4.88
 -10 -3 -2 131.69 4.68
 -10 3 3 34.81 2.77
 10 3 -3 22.49 2.08
 10 -3 3 32.08 2.29
 10 3 3 30.48 2.23
 -10 -3 -3 31.89 2.32
 -10 3 -3 29.89 2.27
 10 3 -3 32.26 2.45
 -10 -3 3 28.96 2.09
 -10 3 3 31.33 2.18
 10 -3 3 30.8 2.18
 10 -3 3 29.69 2.38
 -10 -3 -3 30.24 2.26
 -10 3 -3 29.33 2.15
 -10 -3 -4 0.13 0.21
 -10 3 -4 1.07 0.44
 10 -3 4 0.04 0.25
 10 3 4 0.16 0.24
 10 -3 4 0.1 0.24
 10 -3 -4 0.71 0.42
 -10 3 4 0.05 0.29
 -10 -3 -4 0.25 0.29
 10 3 -4 0.04 0.16
 -10 3 -5 1.32 0.51
 10 3 -5 1.53 0.63
 -10 3 5 0.91 0.55
 -10 -3 -5 0.62 0.39
 10 -3 -5 1.03 0.52
 10 -3 5 1.16 0.52
 -10 3 6 233.05 7.58
 10 3 6 229.78 6.44
 10 -3 6 251.7 7.41
 10 -3 6 261.24 7.11
 -10 -3 -6 276.75 7
 -10 3 -6 238.84 6.23
 10 -3 -6 227.41 7.41
 10 -3 7 2.88 0.79
 -10 3 7 2.52 0.79
 -10 -3 -7 3.16 0.75
 10 3 7 2.68 0.7
 10 -3 7 2.26 0.74
 -10 -4 0 2.33 0.61
 -10 -4 0 2.6 0.6
 -10 4 0 2.36 0.57
 10 4 0 1.9 0.57
 10 -4 0 2.47 0.67
 10 4 0 2.32 0.59
 -10 4 0 2.27 0.64
 -10 4 1 133.94 3.84
 -10 4 -1 133.85 4.42
 10 -4 -1 132.91 4.88
 10 -4 1 132.93 4.71
 -10 4 -1 133.67 4.33
 10 4 1 122.31 4.14
 10 4 -1 127.89 4.4
 10 4 1 117.98 4.44
 -10 4 -1 118.39 4.47
 -10 -4 -1 126.5 4.24
 -10 -4 1 123.21 4.08
 10 -4 1 125.52 4.86
 -10 -4 1 133.12 4.67
 -10 -4 -1 124.44 4.45
 10 -4 -1 133.84 4.86
 10 4 -1 121.13 3.88
 10 -4 1 127.5 4.96
 -10 -4 -2 2.05 0.58
 10 4 2 1.61 0.51
 10 -4 2 1.38 0.49
 -10 -4 2 1.29 0.45
 10 -4 2 1.86 0.59
 -10 -4 -2 1.36 0.5
 -10 -4 2 1.07 0.46
 -10 4 -2 1.76 0.54
 10 4 -2 1.29 0.48
 -10 4 -2 2 0.57
 -10 4 -3 1439.99 15.31
 10 -4 -3 1330.93 16.2
 10 4 3 1459.82 16.11
 10 -4 3 1442.33 15.71
 -10 -4 -3 1477.64 16.17
 10 4 3 1324.38 14.52
 -10 4 3 1419.31 15.02
 -10 4 -3 1395.73 15.68
 -10 -4 3 1383.82 15.05
 10 4 -3 1181.63 14.58
 10 -4 3 1430.17 15.67
 10 4 -3 1255.42 17.85
 -10 -4 -4 7.35 1.12
 -10 4 -4 8.95 1.21
 10 -4 4 7.1 1.15
 -10 4 4 6.71 1.35
 10 -4 -4 6.8 1.26
 10 4 4 6.98 1.15
 10 4 4 7.05 1.07
 -10 -4 -4 6.65 1.17
 10 4 -4 6.38 1.31
 10 -4 4 6.12 1.17
 -10 -4 4 5.81 1.06
 -10 4 -4 5.94 1.02
 -10 4 4 7.01 1.12
 10 -4 4 7.24 1.19
 10 4 5 322.61 7.75
 -10 -4 -5 346.9 8.6
 10 4 5 312.07 7.26
 -10 -4 -5 339.75 7.68
 -10 4 -5 322.76 7.19
 -10 -4 5 311.13 8.2
 10 4 -5 352.72 9.7
 10 -4 -5 312.51 8.51
 10 -4 5 356.03 8.26
 10 -4 5 349.6 8.56
 -10 4 5 327.97 9.5
 -10 4 -6 0.56 0.32
 10 4 6 0.61 0.36
 10 -4 -6 0.68 0.43
 10 -4 6 0.49 0.37
 10 -4 6 0.87 0.46
 10 4 6 0.36 0.3
 -10 4 6 0.53 0.46
 -10 4 7 21.33 2.23
 10 -4 7 20.37 2.14
 10 -4 7 21.65 2.05
 -10 5 0 167.41 4.69
 10 5 0 165.04 5.16
 10 -5 0 165.84 5.83
 10 -5 0 167.51 5.6
 -10 -5 0 164.61 5.37
 -10 -5 0 180.4 5.14
 -10 5 0 158.4 5.15
 10 5 0 157.34 4.57
 10 -5 1 61.36 3.29
 10 -5 1 55.2 3.27
 -10 5 -1 54.35 2.98
 -10 5 1 66.74 2.8
 -10 5 1 49.93 2.84
 -10 5 -1 61.05 2.82
 -10 5 -1 60.36 2.98
 10 5 1 54.02 3.04
 -10 -5 1 55.58 3.04
 -10 -5 -1 59.36 3.07
 10 -5 -1 59.99 3.41
 -10 -5 1 55.19 2.84
 -10 -5 -1 59.96 3.04
 10 -5 1 54.72 3.32
 10 -5 2 441.1 8.78
 10 -5 -2 442.76 9.37
 -10 5 -2 414.77 8.38
 10 -5 2 441.77 8.73
 -10 5 -2 443.74 8.26
 -10 -5 -2 461.96 8.79
 -10 -5 2 425.69 8.15
 10 5 2 410.3 7.98
 -10 5 2 433.05 8.46
 10 -5 2 453.95 9.36
 -10 5 -2 438.6 8.45
 10 5 -2 408.51 8.38
 -10 -5 -2 407.93 8.45
 10 -5 3 3.87 0.85
 10 5 3 4.68 0.94
 -10 -5 -3 4.04 0.86
 10 -5 3 4.15 0.93
 -10 5 -3 5.24 0.94
 10 -5 3 3.13 0.76
 -10 5 3 3.63 0.81
 -10 -5 -3 3.91 0.84
 10 -5 -3 3.83 0.92
 -10 -5 3 3.7 0.83
 10 -5 4 0.07 0.23
 -10 5 4 1.12 0.65
 10 -5 4 0.21 0.26
 10 -5 -4 0.33 0.32
 10 5 4 1.26 0.45
 -10 5 -4 0.22 0.25
 -10 -5 -4 0.15 0.23
 -10 -5 4 1.22 0.52
 10 5 4 1.48 0.55
 -10 5 4 0.2 0.27
 10 5 -4 0.04 0.22
 -10 5 -4 0.3 0.26
 -10 -5 -4 0.07 0.18
 10 -5 5 4.33 0.93
 -10 5 5 5.25 1.21
 -10 -5 -5 4.97 0.94
 -10 5 -5 3.35 0.75
 -10 5 -5 3.86 0.83
 10 5 -5 4.39 1.07
 10 5 5 4.18 0.81
 10 5 5 4.25 0.89
 -10 -5 -5 4.69 1
 -10 -5 5 3.86 0.95
 10 -5 -5 3.51 0.91
 10 -5 5 3.49 0.88
 10 5 -6 156.56 6.31
 -10 -5 -6 147.95 5.56
 -10 5 -6 153.07 5.03
 -10 5 6 148.89 6.63
 10 -5 -6 143.34 5.9
 10 5 6 152.56 4.88
 -10 -5 -6 158.74 5.3
 -10 5 -6 140.56 4.75
 10 6 0 7.01 1
 -10 6 0 9.18 1.17
 -10 -6 0 9.84 1.29
 10 -6 0 8.06 1.28
 10 6 0 8.59 1.25
 10 -6 0 9.23 1.4
 -10 6 0 8.4 1.19
 -10 -6 0 9.05 1.27
 10 -6 1 177.82 5.79
 10 -6 1 183.91 6.05
 -10 6 1 155.49 5.16
 -10 6 -1 177.65 5.18
 10 6 -1 165.26 5.36
 10 6 1 160.23 5.23
 -10 6 -1 184.13 5.02
 10 6 1 169.38 5.11
 10 6 1 170.69 5.04
 -10 6 -1 157.77 5.15
 10 -6 -1 180.67 6.06
 -10 -6 -1 176.42 5.49
 10 -6 -2 -0.04 0.2
 10 -6 2 0.39 0.31
 -10 -6 2 -0.03 0.2
 -10 -6 -2 0.07 0.22
 10 6 -2 0.28 0.3
 -10 6 -2 0.06 0.17
 -10 6 -2 0.84 0.4
 10 6 2 0.65 0.38
 -10 6 2 0.13 0.24
 10 -6 2 -0.04 0.21
 10 6 2 0.27 0.23
 10 -6 2 0.26 0.29
 -10 6 -3 641.27 10.16
 10 -6 -3 597.07 11.57
 -10 6 -3 662.52 10.33
 10 -6 3 689.42 11.34
 10 -6 3 663.55 11.86
 10 6 3 714.56 11.55
 10 6 -3 500.43 10.1
 10 6 3 655.75 10.3
 -10 -6 3 604.47 10.5
 -10 6 3 584.62 10.18
 -10 6 -3 598.71 10.22
 -10 -6 -3 672.91 11.16
 -10 -6 -3 611.04 10.3
 10 -6 3 623.97 10.89
 -10 6 4 9.48 1.33
 10 -6 4 10.78 1.45
 -10 -6 -4 10.33 1.43
 -10 -6 4 8.87 1.38
 10 6 4 9.31 1.35
 10 -6 -4 9.75 1.49
 -10 6 -4 8.3 1.19
 -10 6 -4 10.22 1.29
 10 -6 -5 145.15 5.78
 -10 6 5 160.36 6.57
 10 6 5 153.9 5.55
 10 -6 5 160.8 5.62
 10 6 5 143.5 4.68
 -10 -6 -5 166.25 5.36
 -10 6 -5 150.53 5.11
 10 6 -5 149.54 6.48
 10 -6 5 153.62 5.91
 -10 6 -5 154.04 5
 -10 -6 5 145.79 5.59
 10 6 6 5.29 1.01
 -10 -6 -6 6.17 1.17
 10 -6 6 7.12 1.27
 -10 6 -6 6.02 0.99
 -10 -6 -6 6.98 1.11
 10 -6 -6 6.43 1.24
 10 6 6 4.83 0.87
 10 -6 6 10.44 1.48
 -10 6 -6 5.39 0.96
 10 6 -6 6.85 1.34
 -10 6 6 8.22 1.55
 10 7 0 1936.86 17.11
 -10 7 0 2045.98 17.57
 10 7 0 1893.37 18.05
 -10 -7 0 1947.78 18.72
 10 -7 0 2076.31 20.55
 -10 7 -1 26.61 2.05
 10 -7 1 25.27 2.28
 10 7 1 26.55 2.04
 10 -7 1 25.38 2.4
 10 -7 -1 27.96 2.45
 10 7 -1 26.78 2.2
 -10 7 -1 26.54 2.17
 -10 -7 1 23.12 1.98
 -10 -7 -1 25.91 2.11
 10 -7 2 106.1 4.53
 -10 7 -2 99.4 4.22
 10 7 2 103.3 4.47
 10 7 2 98.9 4.13
 10 7 -2 85.92 4.33
 -10 -7 -2 90.83 3.94
 10 -7 2 103.4 4.57
 -10 7 2 95.15 4.11
 10 -7 -2 87.26 4.15
 10 -7 2 93.37 4.63
 -10 7 -2 104.27 4.3
 -10 -7 2 101.86 4.23
 -10 -7 -2 104.18 4.42
 10 -7 -3 5.89 1.19
 10 -7 3 6.55 1.15
 -10 7 -3 7.69 1.18
 -10 -7 -3 7.57 1.23
 -10 -7 -3 6.53 1.06
 10 7 -3 4.82 1.12
 10 7 3 8.67 1.24
 -10 7 3 7.29 1.18
 10 7 3 6.75 1.04
 -10 7 -3 7 1.15
 -10 7 -3 6.41 1.05
 10 -7 3 6.35 1.2
 -10 -7 -4 0.17 0.23
 -10 7 -4 0.16 0.23
 10 7 4 0.09 0.19
 10 -7 4 0.04 0.15
 -10 -7 4 0.04 0.26
 -10 -7 -4 0.04 0.24
 10 7 4 0.07 0.18
 -10 7 4 -0.04 0.19
 -10 7 -4 -0.03 0.18
 -10 7 -4 0.03 0.17
 10 -7 4 0.19 0.26
 10 -7 4 0.68 0.4
 10 -7 5 0.08 0.24
 10 -7 -5 0.04 0.26
 10 7 5 0.32 0.29
 -10 7 -5 0.31 0.29
 -10 7 -5 0.1 0.17
 10 7 5 0.03 0.11
 10 -7 5 1.01 0.49
 -10 7 5 -0.05 0.27
 10 7 -5 0.1 0.22
 -10 -7 -5 -0.04 0.22
 -10 -7 5 0.28 0.34
 10 7 6 184.35 5.98
 -10 -7 -6 201.51 6.52
 10 -7 6 189.94 6.16
 -10 7 6 198.57 7.48
 -10 -7 6 154 5.8
 10 -7 6 175.16 6.4
 10 -7 -6 174.45 6.44
 -10 7 -6 195.06 5.92
 -10 -7 -6 180.01 5.74
 -10 -8 0 3.12 0.78
 10 8 0 3.01 0.75
 10 -8 0 2.72 0.82
 10 8 0 3.41 0.76
 -10 8 0 2.94 0.74
 -10 8 0 3.26 0.74
 10 -8 1 224.68 6.93
 10 -8 1 209.1 6.91
 -10 8 1 204.04 5.99
 -10 8 -1 222.59 6.05
 10 -8 -1 210.64 6.94
 10 8 -1 203.73 6.22
 10 8 1 195.86 5.85
 -10 8 -1 202.29 6.03
 10 8 1 212.54 5.98
 -10 -8 1 197.52 5.91
 -10 -8 -1 213.65 6.27
 10 -8 -2 16.49 1.86
 10 -8 2 21.4 2.11
 10 -8 2 19.27 2.02
 -10 8 -2 20.44 1.86
 -10 8 2 19.57 1.89
 10 -8 2 20.71 2.15
 -10 -8 -2 22.03 2.05
 10 8 2 18.09 1.8
 10 8 -2 18.33 2.01
 -10 8 -2 19.71 1.91
 10 8 2 18.71 1.77
 -10 -8 2 19.31 1.88
 -10 -8 -2 21.9 2.05
 -10 -8 -3 210.36 6.12
 -10 8 -3 219.52 6.38
 10 -8 3 204.78 6.48
 10 8 3 227.46 6.92
 -10 -8 -3 217.19 6.53
 -10 8 -3 219.69 6.28
 -10 8 3 194.61 6.01
 10 -8 3 222.72 7.16
 -10 8 -3 225.25 6.18
 10 8 3 204.8 5.83
 -10 -8 3 222.56 6.64
 10 8 -3 204.98 6.59
 10 8 3 216.23 6.06
 -10 -8 -4 8.04 1.3
 -10 8 -4 8.04 1.22
 -10 -8 -4 7.34 1.16
 -10 8 4 6.36 1.12
 10 -8 4 7.16 1.3
 10 -8 -4 6.5 1.27
 -10 8 -4 5.94 1.1
 10 -8 4 7.42 1.25
 -10 8 -4 7.63 1.15
 10 -8 -5 146.34 5.86
 10 -8 5 158.79 5.7
 -10 8 -5 134.57 4.77
 -10 -8 -5 165.23 5.84
 -10 8 5 138.1 5.19
 -10 8 -5 141.8 5.13
 10 8 5 131.93 4.49
 -10 8 5 168.23 6.57
 -10 -8 -5 168.6 5.56
 10 -8 5 127.72 5.97
 -10 -8 5 139.03 5.72
 10 -8 5 142.19 5.55
 -10 8 -5 147.78 5.21
 -10 -8 6 -0.04 0.24
 -10 -9 0 655.07 10.99
 -10 9 0 603.27 10.57
 10 -9 0 643.18 12.04
 10 9 0 607.51 10.64
 10 -9 1 0.71 0.47
 10 9 1 0.2 0.29
 10 9 1 -0.03 0.15
 10 9 -1 0.04 0.18
 10 -9 1 0.56 0.38
 -10 9 -1 0.31 0.29
 -10 -9 -1 0.18 0.24
 -10 9 1 0.07 0.17
 -10 -9 1 0.03 0.23
 -10 -9 -1 0.04 0.22
 10 9 2 179.99 5.64
 10 9 -2 193.43 6.49
 10 -9 2 197.2 6.49
 10 -9 -2 167.7 5.96
 -10 -9 -2 205.49 6.38
 -10 -9 2 198.47 6.07
 10 -9 2 185.58 6.47
 10 9 2 199.36 5.93
 -10 9 -2 193.37 5.96
 -10 9 -2 173.79 5.77
 -10 -9 -2 202.63 6.3
 10 -9 3 6.02 1.14
 -10 9 -3 4.72 0.93
 -10 -9 -3 6.19 1.17
 -10 -9 -3 5.03 0.97
 10 -9 -3 6.33 1.26
 10 9 -3 4.59 1.03
 10 9 3 6.14 1.04
 10 9 3 5.52 0.97
 10 -9 3 5.91 1.21
 -10 9 3 5.14 1.02
 -10 9 -3 5.84 1.09
 10 9 4 0.62 0.41
 -10 9 4 0.14 0.21
 10 -9 4 0.04 0.22
 -10 -9 4 0.04 0.28
 -10 -9 -4 0.31 0.3
 -10 -9 -4 0.2 0.24
 10 -9 4 0.4 0.39
 -10 9 -4 0.07 0.16
 10 9 -4 0.08 0.26
 -10 9 5 0.98 0.52
 10 -9 5 0.69 0.44
 10 -9 -5 0.85 0.5
 -10 9 -5 1.57 0.58
 -10 9 5 0.87 0.42
 10 9 5 0.61 0.39
 -10 9 -5 0.6 0.38
 -10 -9 5 0.89 0.53
 -10 -9 -5 0.58 0.41
 -10 -9 -5 0.59 0.37
 10 -9 5 0.67 0.45
 -10 10 0 3.26 0.8
 10 -10 0 3.81 0.96
 10 10 0 3.19 0.8
 -10 -10 0 3.56 0.86
 -10 10 1 65.41 3.51
 -10 10 -1 68.41 3.54
 -10 10 -1 69.38 3.63
 10 10 1 78.89 3.95
 10 -10 1 69.04 4.02
 10 10 -1 70.62 3.78
 10 10 1 68.13 3.51
 10 -10 -1 73.41 4.16
 10 -10 2 2.62 0.8
 10 -10 -2 2.42 0.75
 10 10 -2 2.29 0.77
 -10 -10 -2 3.11 0.82
 10 -10 2 2.14 0.73
 -10 -10 2 2.27 0.71
 -10 -10 -2 2.44 0.73
 10 10 2 2.64 0.71
 -10 10 -2 2.68 0.72
 10 10 2 2.57 0.72
 -10 10 -2 2.66 0.73
 10 -10 3 591.55 11.55
 10 10 -3 559.97 11.47
 10 10 3 599.38 10.1
 -10 -10 3 622.41 11.46
 -10 -10 -3 670.58 11.91
 -10 -10 -3 631.52 10.69
 -10 10 3 580.79 10.7
 10 -10 3 667.33 11.95
 -10 10 -3 660.17 11.17
 10 10 3 657.16 10.76
 10 -10 -4 17.87 2.14
 10 -10 4 20.16 2.1
 -10 10 -4 17.25 1.86
 -10 10 -4 19.62 1.92
 10 10 4 16.68 1.67
 -10 -10 -4 18.37 1.86
 10 10 -4 15.12 1.89
 10 -10 4 18.01 2.03
 -10 -10 4 19.1 2.14
 10 10 4 19.68 1.85
 -10 10 4 18.48 1.91
 -10 -10 -4 20.3 2.11
 10 10 5 86.23 4.18
 10 -10 5 79.92 4.35
 -10 11 0 203.01 6.12
 -10 -11 0 214.45 6.48
 10 11 0 212.99 6.42
 10 -11 0 225.66 7.38
 10 -11 1 7.44 1.38
 -10 -11 1 5.89 1.11
 -10 -11 -1 7.17 1.22
 10 11 -1 6.54 1.17
 10 -11 2 132.65 5.63
 -10 11 -2 128.46 5.1
 -10 11 2 127.33 4.82
 10 11 2 121.82 4.71
 -10 -11 -2 134.75 5.29
 -10 -11 2 133.27 5.14
 -10 11 -2 117.79 4.75
 -10 -11 -2 122.86 5.09
 10 -11 -2 122.12 5.46
 10 -11 2 123 5.39
 10 11 2 133.9 5.07
 10 11 3 3.05 0.77
 10 -11 3 1.97 0.68
 10 -11 -3 2.13 0.76
 10 11 3 1.44 0.53
 10 11 -3 2.17 0.74
 -10 11 -3 1.68 0.59
 -10 11 3 1.8 0.63
 10 -11 3 1.81 0.68
 -10 11 -3 2.1 0.67
 -10 -11 -3 2.08 0.68
 -10 -11 -3 1.71 0.68
 -10 -11 3 2.35 0.73
 -10 -11 4 0.21 0.35
 10 11 -4 0.39 0.36
 10 -11 4 0.04 0.33
 10 -12 0 2.64 0.84
 -10 -12 0 2.12 0.69
 10 12 0 2.06 0.64
 -10 12 0 2.71 0.73
 10 -12 -1 44.47 3.38
 -10 12 1 44.03 2.92
 -10 12 -1 40.77 2.78
 10 12 -1 41.48 2.97
 10 12 1 41 2.74
 10 -12 1 41.43 3.25
 10 -12 1 43.49 3.25
 -10 -12 1 44.7 3.08
 -10 -12 -1 42.43 3.01
 10 -12 2 1.13 0.59
 -10 -12 -2 1.46 0.58
 -10 12 -2 1.05 0.5
 -10 12 -2 1.1 0.51
 -10 12 2 1.05 0.46
 10 12 2 0.71 0.39
 10 12 -2 0.5 0.42
 10 -12 2 1.17 0.61
 10 -12 -2 1.32 0.63
 10 12 2 1.08 0.48
 -10 -12 2 1.07 0.53
 -10 -12 -2 1 0.52
 10 12 3 296.58 7.31
 11 0 0 0.03 0.12
 11 0 0 0.02 0.17
 -11 0 0 0.45 0.3
 -11 0 -1 828.9 11.46
 11 0 1 779.4 10.17
 11 0 -1 789.12 10.88
 11 0 1 815.82 11.75
 11 0 2 78.32 3.24
 11 0 2 80.18 3.92
 -11 0 -2 79.51 3.66
 11 0 3 321.61 6.98
 11 0 4 210.38 6.4
 -11 0 -4 235.68 6.42
 11 0 5 35.42 2.64
 -11 0 -5 38.5 2.61
 -11 0 -6 174 5.35
 11 -1 0 0.1 0.18
 11 1 0 0.33 0.29
 -11 1 0 0.08 0.15
 -11 1 0 0.14 0.19
 -11 -1 0 0.03 0.16
 11 -1 1 577.11 9.01
 -11 1 1 534.95 8.71
 11 1 -1 567.92 9.05
 11 1 1 566.73 9.69
 11 -1 1 568.43 10.08
 11 -1 -1 515.95 9.08
 -11 -1 1 532.17 8.74
 -11 1 -1 564.58 9.62
 11 -1 2 149.89 4.66
 11 -1 -2 150.08 4.78
 11 1 2 146.79 5.19
 11 -1 2 153.93 5.4
 -11 1 2 152.62 4.54
 11 -1 -2 144.64 4.95
 -11 -1 -2 150.8 5.02
 -11 1 -2 169.71 5.37
 11 -1 3 1.61 0.52
 11 -1 -3 1.86 0.63
 11 -1 3 2.11 0.63
 -11 -1 -4 432.9 8.69
 -11 1 -4 414.45 8.22
 11 1 4 409.63 8.65
 11 -1 4 418.33 8.99
 11 -1 4 436.22 8.89
 -11 1 -5 5.11 0.95
 -11 -1 -5 6 1.06
 11 -1 5 5.88 1.09
 11 -1 5 6.42 1.13
 11 1 5 4.2 0.93
 -11 1 -6 75.95 3.68
 -11 1 -6 71.55 3.42
 -11 -1 -6 75.04 3.61
 11 -1 6 71.57 3.82
 11 1 6 73.08 3.71
 11 -2 0 0.18 0.19
 11 2 0 0.47 0.32
 -11 2 0 0.03 0.16
 -11 -2 0 0.03 0.17
 -11 2 0 -0.03 0.15
 11 2 0 0.09 0.18
 11 -2 -1 749.74 11.17
 -11 -2 1 665.53 9.04
 -11 2 1 738.8 10.36
 -11 -2 -1 738.89 10.93
 -11 2 1 764.87 10.04
 -11 2 -1 777.54 10.77
 11 -2 1 747.47 11.91
 11 -2 -1 785.82 11.33
 11 2 -1 836.74 11
 11 2 1 761.42 11.03
 11 -2 1 799.93 11.16
 11 2 -1 668.77 10.01
 -11 -2 1 800.74 11.12
 11 -2 2 120.74 4.31
 -11 -2 -2 124.93 4.62
 -11 2 -2 128.55 4.53
 11 2 2 118.16 4.58
 11 -2 -2 106.85 4.28
 11 -2 2 138.1 5.23
 -11 2 2 133.97 4.42
 11 -2 -2 116.04 4.56
 -11 2 3 82.65 4.59
 -11 -2 -3 81.03 3.8
 11 -2 3 79.68 3.99
 11 2 3 80.72 3.79
 11 -2 3 79.89 3.6
 11 -2 -3 75.27 3.89
 -11 2 4 391.28 10.04
 11 -2 4 388.54 8.33
 -11 2 -4 372.54 7.94
 -11 -2 -4 394.35 8.3
 11 -2 4 358.15 8.41
 11 2 4 368.44 8.13
 -11 2 -5 31.4 2.48
 11 -2 5 40.6 2.84
 -11 2 -5 33.36 2.42
 -11 -2 -5 33.92 2.5
 11 2 5 35.21 2.56
 11 -2 5 36.68 2.73
 -11 2 -6 34.96 2.47
 11 2 6 28.36 2.3
 11 -2 6 29.67 2.5
 11 -2 6 34.65 2.64
 -11 2 -6 31.69 2.28
 -11 -2 -6 34.63 2.49
 -11 3 0 0.03 0.16
 -11 -3 0 0.03 0.14
 -11 3 0 0.22 0.21
 11 -3 0 0.03 0.21
 11 3 0 0.18 0.2
 11 -3 0 0.03 0.15
 11 3 0 0.09 0.16
 -11 -3 0 0.36 0.23
 11 -3 1 257.75 6.55
 -11 3 -1 239.42 6.33
 -11 -3 -1 258.63 6.67
 -11 -3 1 252.31 6.36
 11 -3 -1 264.61 6.85
 -11 3 1 263.91 5.69
 11 -3 1 247.45 6.97
 11 3 -1 259.18 6.08
 11 -3 -1 283.43 6.98
 11 3 1 243.45 6.19
 11 3 -1 253.04 6.33
 11 -3 1 241.84 6.61
 11 3 -2 169.15 4.99
 -11 -3 -2 177.66 5.56
 -11 3 -2 178.3 5.38
 11 -3 2 181.52 6
 11 3 2 172.32 5.38
 -11 3 -2 171.39 5.24
 11 -3 3 98.37 4.1
 11 -3 -3 89.45 4.27
 -11 3 -3 90.2 3.93
 11 -3 3 97.04 4.47
 -11 3 -3 91.23 3.87
 -11 -3 -3 90.69 4.02
 -11 3 4 662.76 13.74
 -11 3 -4 650.54 10.85
 11 -3 -4 659.52 11.86
 11 -3 4 651.25 11.53
 11 3 4 638.68 10.44
 -11 3 -4 719.91 10.8
 -11 -3 -4 715.39 11.08
 11 -3 5 53.26 3.23
 -11 3 5 57.75 3.99
 -11 -3 -5 52.53 3.06
 -11 3 -5 46.89 2.78
 11 -3 -5 48.4 3.39
 -11 3 -5 52.52 3.04
 11 3 5 49.32 2.93
 11 -3 5 53.97 3.4
 11 -3 6 199.89 6.36
 -11 -3 -6 195.43 5.95
 -11 3 -6 171.56 5.24
 11 3 6 161.55 5.41
 11 -3 6 200.4 6.63
 -11 3 -6 185.01 5.73
 11 -4 0 0.03 0.11
 11 4 0 0.03 0.14
 -11 4 0 0.24 0.26
 -11 -4 0 0.23 0.23
 -11 -4 0 0.21 0.22
 -11 4 0 0.11 0.17
 11 4 0 0.06 0.18
 11 -4 1 312.04 7.5
 -11 4 -1 306.42 7.23
 -11 4 1 281.8 6.79
 11 -4 1 300.96 7.48
 -11 4 -1 299.66 7.06
 -11 4 -1 317.25 6.97
 -11 -4 -1 282.23 7.03
 -11 -4 1 277.95 6.77
 11 -4 -1 309.26 7.43
 11 -4 1 292.03 7.64
 11 4 -1 281.84 6.24
 11 -4 -1 289.64 7.4
 -11 -4 1 283.49 6.38
 -11 -4 -1 295.92 6.73
 11 4 1 283.51 6.57
 11 4 1 293.66 7.19
 11 4 -1 281.63 6.64
 11 4 2 8.12 1.14
 -11 4 2 9.33 1.26
 -11 4 -2 9.51 1.26
 -11 -4 2 10.93 1.42
 -11 -4 -2 10.33 1.36
 -11 -4 2 9.54 1.2
 11 4 -2 9.02 1.2
 -11 -4 -2 10.12 1.3
 11 -4 2 9.91 1.32
 11 -4 -2 8.88 1.36
 11 -4 3 111.9 4.46
 -11 4 -3 110.45 4.23
 11 4 3 100.37 4.03
 11 -4 3 116.11 4.83
 -11 4 3 106.31 4.32
 -11 -4 -3 116.61 4.57
 -11 4 -3 127.58 4.66
 -11 -4 -3 114.31 4.6
 11 -4 -3 104.59 4.63
 -11 4 -4 443.54 8.52
 -11 4 -4 452.12 8.95
 11 -4 4 461.68 9.23
 11 -4 -5 7.37 1.3
 -11 -4 -5 8.68 1.26
 -11 4 -5 7.45 1.12
 11 -4 5 8.81 1.39
 -11 4 -5 7.17 1.12
 -11 4 5 10.56 1.8
 11 4 5 8 1.17
 11 -4 5 8.48 1.31
 -11 4 6 34.76 3.14
 -11 4 -6 32.45 2.27
 11 -4 6 36.93 2.75
 -11 4 -6 33.89 2.42
 11 -4 6 37.28 2.87
 11 4 6 34.25 2.38
 11 -5 0 0.04 0.2
 -11 5 0 0.03 0.16
 11 -5 0 0.29 0.32
 11 5 0 0.14 0.18
 -11 -5 0 0.09 0.17
 -11 -5 0 0.11 0.21
 11 5 0 0.03 0.12
 11 -5 1 386.23 8.88
 -11 5 -1 416.7 8.05
 -11 -5 1 394.15 7.82
 -11 -5 -1 401.38 8.08
 -11 5 1 374.67 7.88
 11 -5 1 396.76 8.98
 11 -5 1 430.69 9.02
 -11 -5 1 443.34 8.93
 -11 -5 -1 382.67 8.05
 11 5 1 387.53 8.08
 11 5 -1 407 8.25
 11 -5 -1 438.83 9.36
 11 5 1 396.28 7.68
 11 -5 2 330.36 7.69
 -11 5 -2 319.71 7.52
 -11 5 2 318.31 7.35
 11 -5 2 327.22 8.29
 11 -5 -2 303.39 8.07
 11 5 2 322.96 7.66
 -11 5 -2 344.98 7.41
 11 5 2 295.67 6.85
 11 -5 2 323.56 7.88
 11 5 -2 304.02 7.26
 -11 -5 2 328.1 8.34
 -11 5 -3 6.04 1
 -11 -5 -3 5.74 1.04
 11 5 3 6.24 1.01
 -11 5 -3 6.1 1.03
 11 -5 3 5.7 1.11
 -11 -5 -3 6.43 1.12
 11 -5 3 7.6 1.2
 -11 5 3 6.26 1.09
 11 5 4 509.94 8.97
 11 -5 -4 505.65 10.62
 11 5 4 506.62 10.04
 11 -5 4 546.49 10.11
 -11 -5 -4 489.11 9.19
 -11 5 -4 551.14 9.71
 11 -5 4 525.05 10.62
 -11 -5 -5 48.09 2.94
 -11 5 -5 44.61 2.69
 11 -5 5 52.34 3.36
 -11 5 5 52.28 4.04
 11 5 5 48.86 3.05
 11 -5 5 48.87 3.11
 11 -5 -5 44.23 3.16
 -11 5 -5 45.35 2.81
 11 -5 6 85.01 4.11
 11 5 6 78.8 3.48
 11 -5 6 80.55 4.27
 11 5 6 84.46 3.94
 -11 5 6 89.21 5.16
 -11 5 -6 75.65 3.48
 -11 -5 -6 78.2 3.66
 11 -5 -6 69.48 4.18
 -11 5 -6 77.98 3.57
 -11 -6 0 0.15 0.27
 11 6 0 0.03 0.16
 -11 6 0 0.06 0.14
 -11 -6 0 0.3 0.28
 11 -6 0 -0.04 0.2
 11 -6 1 471.81 9.86
 -11 -6 1 462.51 8.6
 -11 -6 -1 493.31 9.26
 11 6 -1 445.19 8.75
 11 -6 -1 484.86 10.06
 -11 -6 1 471.91 9.59
 -11 -6 -1 437.17 8.77
 11 -6 1 491.48 10.55
 11 6 1 472.77 8.54
 -11 6 -1 479.48 9.24
 11 -6 1 498.72 10.05
 -11 6 -1 480.7 8.62
 -11 6 -2 57.16 3.24
 11 -6 2 49.71 3.2
 -11 -6 2 51.21 2.9
 -11 -6 -2 52.86 3.11
 11 -6 2 50.53 3.32
 -11 -6 -2 46.87 2.86
 11 -6 2 55.46 3.26
 11 6 -2 49.39 3.06
 11 6 2 56.55 3.17
 11 6 2 52.23 2.91
 11 -6 -3 108.61 4.94
 -11 -6 -3 115.71 4.59
 -11 -6 3 113.74 4.59
 -11 -6 -3 128.74 5.02
 -11 6 -3 116.25 4.34
 11 6 3 114.22 4.23
 11 -6 3 121.96 4.82
 11 6 3 125.96 5.02
 -11 6 3 117.84 4.57
 -11 6 -3 126.44 4.58
 11 -6 4 262.77 7.14
 -11 6 4 298.54 9.16
 -11 -6 -4 265.11 7.28
 -11 6 -4 253.74 6.36
 -11 -6 -4 248.38 6.7
 -11 6 4 235.49 6.72
 -11 6 -4 245.95 6.51
 11 6 4 244.53 6.17
 11 -6 4 275.13 7.61
 11 -6 5 29.38 2.58
 11 6 5 28.73 2.39
 11 6 5 24.89 1.96
 -11 6 5 33.25 3.19
 -11 6 -5 28.86 2.24
 11 -6 5 26.59 2.31
 11 -6 -5 26.58 2.5
 -11 -6 -5 27.93 2.21
 -11 6 -5 27.23 2.08
 -11 6 -6 64.18 3.3
 -11 6 6 66.71 4.68
 11 -6 6 63.63 3.56
 11 -6 -6 57.62 3.71
 11 -6 6 71.51 4.13
 11 7 0 0.16 0.22
 -11 -7 0 0.24 0.29
 11 -7 0 -0.04 0.32
 -11 -7 0 0.41 0.33
 -11 -7 -1 189.7 6.06
 11 -7 1 218.87 7.11
 11 -7 1 226.7 7.02
 -11 -7 1 224.67 6.16
 -11 -7 -1 245.77 6.63
 11 -7 -1 229.1 7.07
 -11 7 -1 241.99 6.34
 11 7 -1 200.89 6.16
 11 7 1 215.16 6.23
 -11 7 -1 207.18 6.15
 11 -7 1 226.56 6.93
 -11 7 1 222.29 6.23
 11 7 1 222.94 6.02
 11 -7 -2 26.26 2.44
 -11 7 -2 33.36 2.41
 11 -7 2 31.82 2.54
 -11 7 2 29.47 2.38
 11 -7 2 32.37 2.72
 11 -7 2 32.88 2.66
 -11 -7 -2 30.93 2.36
 -11 -7 2 33.56 2.41
 -11 -7 -2 35.4 2.6
 -11 7 -2 31.02 2.4
 11 7 -2 28 2.34
 11 7 2 28.3 2.15
 -11 7 3 2.9 0.75
 11 7 3 4.63 0.98
 11 -7 3 3.07 0.87
 -11 -7 3 4.01 0.9
 -11 -7 -3 3.88 0.89
 11 7 -3 2.75 0.81
 -11 7 -3 3.35 0.79
 11 -7 3 3.3 0.88
 -11 -7 -3 3.98 0.84
 -11 7 -3 2.43 0.74
 11 -7 -3 2.94 0.88
 -11 -7 -4 278.65 7.6
 -11 7 -4 246.12 6.68
 11 -7 4 256.46 7.51
 11 7 4 247.07 6.37
 11 -7 4 267.22 7.33
 11 -7 -4 254.6 7.7
 11 7 4 277.92 7.57
 -11 7 -4 258.77 6.58
 -11 -7 -4 247.05 6.65
 11 -7 5 0.84 0.48
 11 -7 -5 0.57 0.45
 11 7 5 0.68 0.43
 11 7 5 0.97 0.4
 11 -7 5 1.08 0.53
 -11 7 -5 0.51 0.35
 -11 -7 -5 0.69 0.37
 11 -8 0 0.04 0.23
 11 8 0 -0.03 0.15
 -11 8 0 -0.03 0.18
 -11 -8 0 0.07 0.21
 -11 -8 0 0.3 0.28
 11 8 -1 519.26 9.84
 11 8 1 526.45 9.85
 -11 -8 -1 507.74 10.28
 11 -8 1 503.02 10.93
 -11 8 1 485.67 9.4
 11 -8 -1 522.72 11.02
 -11 -8 1 528.39 9.7
 -11 -8 -1 541.37 10.09
 11 -8 1 553.94 10.95
 -11 8 -2 148.79 5.06
 -11 -8 -2 142.76 5.06
 11 -8 2 149.61 5.78
 11 -8 2 139.31 5.67
 -11 8 -2 134.98 5.09
 11 8 2 142.43 4.92
 11 8 -2 140.02 5.33
 11 8 2 150.8 5.17
 -11 -8 -2 163.49 5.7
 -11 -8 2 145.55 5.12
 -11 8 -3 68.12 3.59
 11 -8 3 75.19 3.92
 -11 8 -3 74.89 3.59
 -11 -8 -3 66.06 3.48
 -11 -8 -3 76.74 3.94
 -11 8 3 63.59 3.47
 11 -8 3 64.12 4.05
 11 8 3 78.31 3.73
 11 8 -3 63.11 3.87
 11 -8 -3 68.7 4.15
 11 8 3 80.63 3.66
 -11 -8 3 74.37 3.87
 11 -8 3 70.2 3.95
 11 -8 -4 118.27 5.26
 11 8 4 143.24 5.4
 -11 8 -4 137.66 4.91
 -11 -8 -4 126.7 5.16
 -11 8 4 118.57 4.82
 -11 -8 4 133.63 5.32
 11 -8 4 125.02 5.34
 11 8 4 121.41 4.44
 -11 -8 -4 125.92 4.79
 -11 8 -4 112.53 4.63
 11 -8 5 29.59 2.48
 11 -8 -5 25.21 2.46
 -11 8 -5 29.11 2.3
 -11 8 5 32.67 2.94
 -11 -8 -5 33.6 2.65
 11 8 5 31.27 2.49
 11 -8 5 26.82 2.61
 -11 8 -5 26.26 2.24
 11 -9 0 0.04 0.24
 -11 9 0 0.31 0.28
 11 9 0 0.24 0.27
 -11 -9 0 0.1 0.25
 -11 -9 1 236.57 6.62
 -11 -9 -1 246.73 6.86
 -11 9 -1 220.98 6.29
 11 -9 -1 252.23 7.67
 11 -9 1 225.53 7.28
 11 9 1 216.92 6.26
 -11 -9 -1 229.29 6.89
 -11 9 -1 239.2 6.61
 11 9 1 243.29 6.63
 11 -9 1 234.42 7.31
 11 9 -2 82.17 4.38
 11 9 2 98.98 4.19
 -11 -9 -2 99.4 4.31
 -11 9 -2 94.74 4.23
 -11 9 2 89.67 4.17
 11 -9 2 97.07 4.79
 -11 -9 2 103.14 4.4
 11 -9 2 107.28 4.82
 11 -9 -2 98.6 4.8
 11 -9 -3 0.41 0.43
 -11 9 -3 0.31 0.3
 -11 -9 -3 0.4 0.33
 11 9 3 0.1 0.18
 11 9 -3 0.04 0.22
 -11 9 3 0.95 0.45
 -11 9 -3 0.17 0.23
 -11 -9 -3 0.23 0.3
 -11 -9 3 0.46 0.41
 11 9 3 0.29 0.25
 11 -9 3 0.29 0.38
 11 -9 3 0.17 0.26
 11 -9 4 229.14 6.92
 -11 -9 4 232.17 7.08
 -11 9 -4 198.14 6.2
 11 -9 -4 214.53 7.09
 11 -9 4 195.19 6.77
 -11 9 4 218.8 6.43
 -11 -9 -4 214.49 6.21
 -11 9 -4 223.99 6.25
 11 9 4 211.65 5.89
 11 9 5 7.04 1.18
 -11 -9 -5 6.87 1.22
 -11 -10 0 0.14 0.24
 11 10 0 0.14 0.22
 11 -10 0 0.13 0.3
 -11 10 0 0.27 0.24
 -11 10 1 144.08 5.27
 -11 -10 1 170.1 5.73
 -11 -10 -1 167.49 5.73
 11 -10 1 155.89 6.26
 11 10 -1 146.59 5.48
 -11 -10 -1 167.09 5.96
 11 -10 1 171.88 6.33
 11 -10 -1 162.6 6.33
 -11 -10 -2 13.09 1.67
 -11 -10 2 11.6 1.56
 -11 10 -2 12.14 1.55
 11 -10 2 12.4 1.75
 11 10 2 13.13 1.55
 11 10 -2 9.82 1.54
 11 10 2 10.78 1.39
 -11 10 -2 12.41 1.55
 -11 -10 -2 12.64 1.6
 11 -10 2 12.11 1.68
 11 -10 -3 79.86 4.47
 -11 10 3 73.65 3.77
 -11 -10 3 79.58 4.04
 11 -10 3 78.1 4.28
 -11 10 -3 70.62 3.7
 11 10 3 80.66 3.68
 11 10 3 82.67 3.78
 -11 -10 -3 78.1 3.8
 -11 10 -3 82.13 3.95
 -11 -10 4 164.9 6.13
 -11 -10 -4 171.31 6.01
 11 -11 0 0.09 0.29
 -11 -11 0 0.04 0.2
 -11 11 0 0.04 0.16
 11 11 0 0.04 0.16
 -11 -11 -1 141.06 5.52
 11 11 -1 119.48 4.94
 11 11 1 115.38 4.57
 11 -11 1 134.39 5.64
 -11 11 -1 117.41 4.69
 -11 11 1 122.02 4.76
 -11 -11 2 90.51 4.38
 -11 -11 -2 100.97 4.75
 -11 11 -2 93.07 4.17
 11 -11 2 102.65 4.94
 -11 11 2 79.04 4.07
 11 -11 -2 85.08 4.66
 11 11 -2 91.01 4.51
 11 11 2 90.5 3.96
 -11 -11 -2 104.38 4.76
 11 -11 2 85.81 4.6
 11 11 3 17.31 1.75
 -11 11 -3 17.9 1.87
 11 -11 3 16.58 2.07
 -11 -11 -3 17.26 1.95
 -11 -11 3 16.71 1.91
 11 11 -3 15.44 1.94
 -11 -12 0 0.07 0.26
 -11 -12 1 137.92 5.41
 -11 -12 -1 134.72 5.37
 -12 0 0 1890.96 16.78
 12 0 0 1979.78 19.07
 12 0 -1 0.44 0.31
 12 0 1 1.23 0.5
 -12 0 -1 0.57 0.34
 -12 0 1 0.39 0.26
 -12 0 -2 164.95 5.47
 12 0 3 15.11 1.71
 -12 0 -3 15.06 1.63
 -12 0 -4 1.38 0.52
 12 0 4 1.69 0.59
 -12 0 -5 0.87 0.4
 12 0 5 0.18 0.24
 12 0 6 169.27 5.66
 -12 0 -6 161.88 5.12
 -12 1 0 10.26 1.28
 12 -1 0 11.89 1.47
 -12 -1 0 11.55 1.38
 -12 1 0 13.13 1.46
 -12 1 1 137.47 4.48
 12 1 1 138.43 4.95
 12 1 -1 123.38 4.49
 12 -1 1 135.7 5.17
 12 -1 -1 121.47 4.7
 -12 -1 -1 118.64 4.6
 -12 -1 1 114.64 4.25
 -12 1 -1 139.2 4.87
 12 1 2 12.65 1.6
 -12 -1 -2 13.64 1.55
 -12 1 -2 13.97 1.59
 12 -1 3 548.75 10.3
 -12 -1 -3 543.42 9.81
 -12 1 -3 556.17 9.87
 12 1 4 21.7 2.03
 12 -1 4 22.55 2.09
 -12 -1 -4 23.27 2.06
 -12 1 -4 21.98 1.9
 12 1 5 389.52 8.59
 12 -1 5 375.88 8.75
 -12 1 -5 400.54 8.11
 -12 -1 -5 415.63 8.73
 -12 1 -6 14.69 1.62
 12 1 6 15.17 1.68
 12 -1 6 14.75 1.72
 -12 1 -6 13.39 1.48
 -12 -1 -6 12.91 1.46
 -12 2 0 612.13 10
 12 -2 0 607.19 10.31
 -12 2 0 559.36 9.14
 -12 -2 0 573.97 9.7
 12 -2 0 650.15 10.9
 12 2 1 2.19 0.63
 -12 2 1 2.13 0.6
 -12 -2 1 2.89 0.7
 12 -2 1 2.28 0.69
 12 -2 -1 1.84 0.62
 -12 2 -1 2.28 0.62
 -12 -2 -1 2.69 0.7
 12 -2 1 2.22 0.64
 -12 2 -2 459.06 8.73
 12 -2 2 479.35 9.86
 -12 2 -3 -0.03 0.19
 12 -2 3 0.53 0.37
 12 -2 3 0.1 0.21
 12 -2 4 0.38 0.33
 12 2 4 0.37 0.3
 -12 -2 -4 1.05 0.45
 -12 2 -4 0.66 0.37
 -12 2 -5 3.99 0.83
 -12 2 -5 3.73 0.78
 -12 2 -6 91.12 3.99
 12 2 6 85.52 3.96
 12 -2 6 98.36 4.5
 -12 2 -6 85.42 3.77
 -12 -2 -6 92.41 4.15
 -12 3 0 12.78 1.49
 -12 3 0 13.8 1.46
 12 -3 0 13.48 1.59
 12 -3 0 12.62 1.54
 12 3 0 11.58 1.38
 -12 -3 0 14.92 1.62
 -12 3 -1 61.43 3.29
 -12 3 1 66.7 3.32
 12 -3 1 82.34 4.19
 12 3 1 71.43 3.44
 12 -3 -1 70.58 3.67
 -12 -3 -1 67.92 3.51
 -12 -3 1 78.54 3.76
 12 3 -1 66.18 3.26
 -12 3 -1 74.37 3.44
 12 -3 -2 16.48 1.88
 -12 3 -2 17.72 1.71
 -12 -3 -2 17.8 1.75
 -12 3 -2 13.56 1.88
 -12 3 2 16.76 1.7
 12 -3 2 20.01 1.86
 12 -3 3 909.38 12.68
 -12 3 -3 925.35 12.82
 -12 3 -3 901.38 12.23
 12 -3 3 913.49 13.62
 12 -3 4 59.03 3.34
 -12 3 -4 54.66 3.1
 -12 3 -4 56.32 3.07
 -12 -3 -4 55.97 3.11
 12 3 4 54.91 3.1
 12 -3 4 54.18 3.43
 12 -3 5 194.69 6.21
 -12 3 -5 182.29 5.9
 12 3 5 195.49 5.78
 -12 -3 -5 192.59 5.85
 -12 3 -6 16.89 1.73
 -12 4 0 1008.57 13.51
 12 4 0 1047.82 12.95
 12 -4 0 1009.9 14.67
 12 -4 0 1134.96 14.96
 12 4 0 1013.61 13.43
 -12 4 0 1123.47 12.85
 -12 -4 0 1038.18 13.63
 12 4 1 117.93 4.7
 -12 4 1 115.14 4.41
 -12 4 -1 106.03 4.37
 -12 -4 -1 114.09 4.61
 -12 -4 1 110.91 4.45
 12 4 1 117.25 4.35
 12 -4 -1 107.14 4.56
 12 -4 1 117.84 4.81
 12 -4 -1 113.43 4.8
 12 -4 1 124.72 4.89
 12 4 -1 106.97 4.39
 -12 4 -1 123.59 4.42
 -12 -4 -2 246.39 6.65
 12 -4 2 245.1 7.18
 12 4 2 245.91 6.47
 12 -4 -2 235.97 7.28
 -12 4 2 237.85 6.47
 12 -4 2 245.75 6.62
 -12 -4 -3 1.6 0.54
 -12 4 -3 1.7 0.55
 12 -4 -3 1.79 0.66
 12 -4 3 1.8 0.6
 12 4 3 2.63 0.67
 12 -4 4 0.4 0.33
 -12 4 -4 0.37 0.3
 12 -4 4 0.46 0.36
 12 4 4 0.44 0.31
 -12 -4 -4 0.61 0.36
 -12 4 -4 0.47 0.33
 12 -4 5 12.02 1.57
 -12 4 -5 12.59 1.46
 12 -4 5 12.04 1.64
 12 4 5 11.61 1.38
 -12 4 -5 11.53 1.37
 -12 -4 -5 11.47 1.41
 12 -4 6 130.09 5.22
 12 5 0 7.74 1.1
 12 -5 0 8.38 1.31
 12 -5 0 9.02 1.38
 -12 -5 0 7.4 1.15
 12 5 0 7.56 1.14
 -12 5 0 8.62 1.26
 12 5 1 104.82 4.09
 -12 5 -1 100.55 4.21
 12 -5 -1 106.62 4.73
 -12 5 -1 110.59 4.19
 12 -5 1 111.89 4.72
 -12 -5 -1 90.56 4.14
 -12 -5 1 108.81 4.5
 12 5 1 101.93 4.22
 12 5 -1 98.18 4.11
 12 -5 1 92.59 4.59
 12 -5 2 32.67 2.6
 12 5 2 29.31 2.18
 12 -5 2 27.52 2.28
 -12 -5 -2 28.79 2.28
 -12 5 -2 31.86 2.3
 -12 5 -2 29.16 2.32
 -12 5 3 292.49 7.32
 -12 5 -3 298.22 7.25
 -12 5 -3 294.22 7
 12 -5 -3 286.87 7.89
 -12 -5 -3 307.62 7.48
 12 -5 3 303.62 7.59
 12 5 3 287.73 6.91
 12 -5 3 280.27 7.89
 -12 -5 -4 1.62 0.57
 12 -5 -4 1.69 0.65
 12 -5 4 1.97 0.65
 12 -5 4 1.81 0.67
 12 5 4 1.88 0.57
 -12 5 -4 2.52 0.66
 12 -5 5 477.2 10.25
 -12 -5 -5 451.85 8.8
 12 -5 5 462.99 9.57
 12 -6 0 971.54 14.28
 12 -6 0 947.68 14.29
 -12 6 0 932.72 12.94
 -12 -6 0 909.48 12.97
 12 6 0 891.22 12.71
 12 6 1 1.96 0.61
 12 6 1 1.6 0.52
 -12 6 1 1.8 0.62
 -12 -6 1 1.7 0.61
 -12 -6 -1 1.43 0.55
 12 -6 1 2.4 0.75
 12 -6 1 2.02 0.67
 12 -6 -1 2.17 0.72
 -12 6 -1 2.03 0.59
 12 6 2 174.89 5.74
 -12 -6 -2 170.15 5.43
 -12 6 -2 188.1 5.61
 12 6 2 176.04 5.36
 -12 6 2 180.61 5.73
 12 -6 -2 173.28 6.35
 12 -6 2 184.87 6.07
 -12 6 -3 0.6 0.35
 -12 6 3 0.91 0.46
 -12 6 -3 1.76 0.55
 -12 -6 -3 0.72 0.39
 12 -6 -3 1.71 0.65
 12 -6 3 1.26 0.53
 12 6 3 1.48 0.51
 12 -6 3 1.29 0.54
 -12 6 -4 1.2 0.48
 12 6 4 1.35 0.49
 12 -6 -4 0.97 0.52
 12 -6 4 1.89 0.64
 -12 6 -4 1.11 0.49
 -12 6 -5 0.86 0.46
 12 -6 5 1.54 0.63
 12 6 5 0.67 0.35
 12 -6 5 1.15 0.51
 12 -6 -5 0.61 0.44
 12 6 5 0.64 0.38
 -12 6 -5 0.89 0.4
 -12 -6 -5 0.73 0.37
 -12 7 0 9.57 1.34
 -12 -7 0 11.39 1.46
 12 7 0 10.52 1.39
 12 -7 0 11.59 1.64
 -12 7 1 64.46 3.45
 12 7 1 63.62 3.25
 -12 7 -1 61.13 3.43
 12 -7 -1 65.42 3.88
 -12 -7 1 69.01 3.92
 -12 -7 -1 54.47 3.28
 12 -7 1 67.92 3.89
 12 7 -1 61.31 3.3
 12 7 1 65.42 3.43
 -12 7 2 39.99 2.7
 12 7 2 36.44 2.46
 -12 7 -2 38.65 2.66
 -12 -7 -2 32.99 2.42
 12 -7 -2 37.12 2.96
 12 7 -2 35.7 2.68
 12 7 2 36.29 2.51
 -12 7 -2 40.02 2.65
 12 -7 2 39.66 3
 12 7 3 544.99 9.5
 -12 7 -3 531.32 9.9
 12 -7 -3 596.44 11.83
 12 -7 3 574.9 11.59
 -12 7 -3 596.16 10.07
 12 -7 3 606.54 11.02
 -12 -7 -3 536.27 9.88
 12 7 4 40.33 2.58
 -12 7 -4 41.25 2.73
 12 -7 -4 43.41 3.32
 12 7 4 50.98 3.25
 -12 7 -4 47.25 2.82
 12 -7 4 46.57 3.25
 -12 -7 -4 45.99 2.82
 12 -7 5 152.88 5.55
 12 7 5 151.19 5.48
 -12 8 0 357.62 8.13
 12 -8 0 412.34 9.7
 12 -8 1 21.1 2.17
 -12 -8 -1 18.03 1.82
 -12 -8 1 21.12 2.16
 12 8 -1 18.45 1.87
 12 8 1 18.83 1.83
 -12 8 1 17.22 1.81
 12 -8 -1 20.09 2.2
 -12 8 -1 17.37 1.84
 12 -8 2 275.41 7.86
 -12 8 2 248.14 6.81
 12 -8 -2 245.4 7.45
 12 -8 2 286.46 7.79
 12 8 2 280.74 7.05
 -12 -8 -2 256.51 6.89
 -12 8 -2 268.36 7.01
 12 8 -2 251.7 7.2
 12 8 2 250.64 6.6
 -12 8 3 2.2 0.67
 -12 8 -3 2.6 0.71
 -12 8 -3 3.2 0.77
 12 -8 3 2.63 0.84
 -12 -8 -3 3.16 0.76
 12 8 3 2.85 0.71
 12 -8 -3 2.58 0.85
 12 -8 3 2.5 0.75
 12 -8 -4 0.04 0.3
 12 -8 4 0.08 0.28
 -12 8 -4 0.1 0.19
 12 8 4 -0.03 0.16
 12 -8 4 0.08 0.18
 -12 8 -4 0.13 0.23
 -12 -8 -4 0.16 0.26
 -12 -9 0 5.57 1.12
 -12 9 0 4.37 0.93
 12 9 0 4.5 0.91
 12 -9 0 4.13 1.02
 12 -9 -1 54.47 3.68
 -12 9 1 50.42 3.1
 12 -9 1 54.95 3.55
 -12 -9 -1 51.61 3.29
 12 9 -1 47.88 3.04
 12 9 1 50.07 2.97
 12 9 -2 2.34 0.74
 12 9 2 2.23 0.66
 -12 9 -2 2.68 0.76
 -12 9 2 1.97 0.66
 12 9 2 1.99 0.6
 -12 9 -2 2.26 0.67
 -12 9 3 247.8 6.82
 12 -9 3 250.32 7.55
 12 -9 3 279.13 7.73
 12 9 3 274.11 6.93
 -12 9 -3 268.32 7.07
 -12 -9 -3 259.55 6.81
 12 -9 -3 290.08 8.48
 12 9 3 290.9 7.12
 -12 9 -3 307.89 7.39
 -12 9 4 1.36 0.54
 -12 -10 0 676.91 11.38
 -12 10 0 674.81 11.14
 12 10 -1 30.18 2.42
 12 10 1 31.22 2.43
 12 -10 -1 34.27 2.89
 -12 -10 -1 34.5 2.71
 12 -10 1 32.47 2.76
 -12 -10 -1 33.81 2.65
 -12 10 1 28.64 2.37
 -12 10 -1 26.98 2.24
 12 -10 2 80.93 4.33
 -12 10 2 76.11 3.82
 12 -10 -2 75.97 4.33
 12 10 -2 73.95 3.89
 12 10 2 77.36 3.68
 -12 10 -2 73.05 3.73
 -12 -10 -2 74.7 3.74
 12 10 3 0.16 0.21
 -12 10 3 -0.04 0.2
 12 -11 0 5.24 1.16
 12 11 0 4.36 0.91
 -12 -11 0 4.46 0.97
 -12 -11 0 5.22 1.09
 12 11 -1 37.98 2.73
 -12 -11 -1 40.46 2.99
 12 11 -2 7.11 1.23
 -13 0 0 0.13 0.16
 13 0 0 0.21 0.24
 -13 0 0 0.03 0.16
 -13 0 -1 131.25 4.8
 13 0 2 50.14 3.11
 -13 0 -2 51.34 3
 -13 0 -3 3.45 0.81
 13 0 4 370.02 8.35
 13 0 5 6.71 1.15
 -13 0 -5 5.95 1.01
 -13 1 0 0.12 0.17
 -13 -1 0 0.25 0.26
 -13 1 0 0.35 0.29
 13 -1 0 0.4 0.31
 13 1 0 0.04 0.16
 13 -1 -1 216.94 6.43
 13 1 1 230.06 6.58
 -13 -1 -1 219.07 6.21
 13 1 2 195.65 6.11
 13 -1 2 194.6 6.26
 -13 -1 -2 194.76 5.86
 -13 1 -2 193.73 5.87
 -13 -1 -3 142.15 5.13
 -13 1 -3 134.54 4.84
 13 1 4 203.19 6.15
 -13 -1 -4 205.41 6.1
 -13 1 -4 192.23 5.68
 13 1 5 94.86 4.18
 13 -1 5 97.3 4.43
 -13 1 -5 94.93 4.05
 -13 -1 -5 102.14 4.36
 -13 2 0 -0.03 0.17
 -13 -2 0 0.2 0.22
 13 -2 0 0.22 0.26
 13 2 0 0.1 0.2
 -13 2 -1 160.31 5.14
 -13 2 1 158.82 5.15
 -13 2 -1 189.51 5.59
 -13 -2 -1 175.17 5.56
 13 -2 1 194.14 6.2
 13 2 1 178.14 5.73
 13 -2 -1 171 5.77
 -13 -2 -2 308.57 7.49
 -13 2 -2 331.98 7.58
 13 -2 2 337.85 8.22
 13 2 2 334.88 7.78
 -13 2 -3 6.93 1.12
 13 -2 3 4.86 1.05
 13 -2 4 198.42 6.33
 13 2 4 186.79 5.91
 -13 2 -4 188.16 5.63
 -13 -2 -4 201.49 5.94
 13 -2 5 11.52 1.56
 13 2 5 10.41 1.38
 -13 -2 -5 9.64 1.34
 -13 2 -5 9.44 1.27
 -13 2 -5 9.04 1.32
 -13 -3 0 0.24 0.26
 13 3 0 0.16 0.21
 -13 3 -1 168.13 5.27
 -13 -3 -1 154.11 5.23
 13 -3 -1 147.74 5.78
 13 3 1 152.91 5.4
 13 -3 1 171.73 5.89
 -13 3 -1 144.5 5.19
 -13 3 1 151.08 5.09
 13 3 2 86.32 3.89
 13 -3 2 87 4.3
 -13 3 -2 94.44 4.04
 -13 -3 -2 80.12 3.85
 -13 3 -3 71.39 3.64
 13 3 3 68.88 3.54
 13 -3 3 78.88 4.07
 -13 -3 -3 67.2 3.56
 -13 3 -4 83.14 3.79
 -13 -3 -4 84.13 3.86
 -13 3 -4 79.09 3.88
 -13 3 -5 10.01 1.41
 -13 -3 -5 11.34 1.45
 -13 3 -5 10.28 1.33
 13 3 5 10.45 1.35
 13 -3 5 10.67 1.48
 13 -4 0 0.41 0.36
 13 4 0 0.09 0.2
 -13 4 0 0.03 0.15
 -13 -4 0 0.07 0.18
 13 -4 0 -0.04 0.22
 13 -4 1 313.34 7.96
 13 -4 1 323.78 8.06
 -13 -4 -1 301.18 7.32
 -13 4 1 275.08 6.9
 -13 4 -1 288.29 7.14
 -13 4 -1 322.24 7.28
 -13 4 -2 238.47 6.4
 13 4 2 218.32 6.34
 -13 -4 -2 227.98 6.38
 13 -4 3 10.05 1.5
 13 4 3 9.38 1.28
 -13 -4 -3 9.39 1.29
 -13 4 -3 10.45 1.33
 -13 4 -4 131.19 4.93
 13 -4 4 131.44 5.21
 -13 -4 -4 126.51 4.76
 -13 4 -4 122.94 4.55
 -13 4 -5 32.75 2.45
 -13 4 -5 33.08 2.31
 13 4 5 28.65 2.27
 13 -4 5 34.99 2.7
 13 -5 0 0.08 0.23
 13 -5 0 0.04 0.21
 -13 -5 0 0.03 0.13
 13 5 0 0.19 0.21
 13 5 1 244.91 6.44
 13 -5 -1 262.65 7.71
 -13 5 -1 257.84 6.8
 -13 -5 -1 264.4 7.08
 -13 5 1 260.23 6.77
 13 5 1 260.93 6.91
 13 -5 1 281.33 7.77
 13 5 2 44.71 2.74
 13 -5 2 46.27 3.22
 -13 -5 -2 43.79 2.83
 -13 5 -2 43.95 2.9
 13 -5 -2 46.96 3.3
 -13 5 2 43.8 2.84
 -13 5 -2 47.48 2.81
 13 -5 2 48.46 3.11
 13 -5 3 20.34 2
 -13 -5 -3 17.32 1.75
 -13 5 -3 19.29 1.8
 -13 5 -3 17.07 1.75
 13 5 3 17.78 1.76
 13 -5 3 24.77 2.29
 13 -5 4 112.05 4.74
 -13 -5 -4 99.58 4.11
 -13 5 -4 106.65 4.19
 13 5 4 96.52 4.03
 13 -5 4 108.71 4.79
 -13 5 -5 39.77 2.61
 13 -6 0 0.59 0.41
 -13 -6 0 0.07 0.19
 13 -6 0 0.2 0.31
 13 6 0 0.49 0.3
 13 -6 1 133.89 5.47
 13 -6 1 132.18 5.32
 -13 6 -1 118.05 4.72
 13 6 1 124.55 4.61
 13 6 -1 123.57 4.72
 -13 6 1 125.67 4.73
 13 -6 -1 139.11 5.69
 13 -6 2 120.67 5.01
 13 -6 2 122.43 5.38
 -13 -6 -2 125.05 4.75
 13 -6 -2 104.72 5.39
 -13 6 -2 119.2 4.47
 -13 6 2 116.46 4.69
 -13 6 -2 119.94 4.74
 -13 6 -3 1.08 0.46
 13 -6 3 1.55 0.59
 13 6 3 1.34 0.48
 13 -6 -3 1.28 0.58
 13 -6 3 1.52 0.58
 -13 6 -4 166.9 5.35
 13 6 4 176.63 5.41
 -13 6 -4 180.09 5.46
 -13 -6 -4 182.35 5.58
 13 -6 5 9.61 1.42
 -13 7 0 0.41 0.33
 13 7 1 93.06 4.06
 13 7 -1 77.25 3.85
 13 -7 1 106.02 4.89
 13 -7 1 98.27 4.65
 -13 7 -1 94.04 4.19
 -13 7 1 93.74 4.13
 -13 -7 -1 83.78 3.93
 13 7 2 171.29 5.62
 -13 7 -2 183.67 5.74
 13 -7 2 186.79 6.33
 -13 -7 -2 176.66 5.59
 13 7 2 183.02 5.54
 -13 7 2 168.19 5.64
 13 -7 -2 184.68 6.75
 -13 -7 -3 138.96 4.99
 -13 7 -3 133.73 4.92
 13 -7 3 153.53 5.63
 13 -7 3 141.23 5.79
 -13 7 -3 149.33 5.06
 13 -7 -3 133.21 5.9
 13 -7 -4 121.55 5.51
 13 7 4 117.33 4.39
 -13 7 -4 128.65 4.64
 13 -7 4 124.76 5.02
 -13 8 0 0.03 0.17
 13 -8 0 0.13 0.26
 13 8 0 0.07 0.19
 -13 -8 0 -0.07 0.19
 13 -8 1 72.86 4.05
 -13 8 -1 71.1 3.61
 13 8 1 63.55 3.36
 13 8 -1 58.33 3.29
 13 -8 -1 71.94 4.18
 -13 -8 -1 61.3 3.43
 -13 8 1 64.4 3.54
 -13 8 2 108.28 4.56
 13 8 2 121.27 4.62
 -13 -8 -2 111.84 4.46
 13 -8 -2 107.78 5.27
 -13 8 -2 111.14 4.49
 13 8 2 106.96 4.34
 13 -8 2 118.56 5.13
 13 -8 -3 0.46 0.44
 13 -8 3 0.24 0.34
 -13 8 3 0.22 0.29
 -13 8 -3 0.07 0.2
 13 8 3 0.13 0.19
 13 -8 3 0.25 0.32
 -13 -8 -3 0.36 0.3
 -13 8 -3 0.55 0.38
 13 -8 -4 163.14 6.38
 -13 9 0 -0.03 0.16
 13 9 0 -0.03 0.17
 13 -9 0 0.45 0.42
 13 -9 -1 130.79 5.65
 -13 9 -1 126.84 4.83
 13 9 1 123.19 4.62
 -13 -9 -1 126.82 4.92
 13 -9 1 132.57 5.46
 -13 9 1 120.8 4.84
 13 -9 -2 83.2 4.52
 -13 9 -2 67.86 3.6
 -13 -9 -2 70.42 3.59
 -13 9 2 71.44 3.7
 13 9 2 66.41 3.44
 13 -9 2 71.99 4.02
 -13 9 3 57.63 3.36
 -13 9 -3 61.24 3.34
 13 -9 -3 63.02 3.97
 13 9 3 59.97 3.29
 13 -10 0 0.05 0.23
 13 10 0 0.07 0.17
 -13 -10 0 0.24 0.3
 13 -10 -1 112.63 5.26
 -13 -10 -1 117.08 4.73
 13 -10 1 115.08 5.17
 13 10 -1 106.41 4.48
 -14 0 -1 22.11 2.08
 14 0 1 21.97 2.12
 -14 0 -2 90.79 4.12
 -14 0 -3 537.07 9.98
 14 0 3 514.23 9.98
 -14 0 -4 33.86 2.57
 14 0 4 33.2 2.61
 14 -1 0 374.31 9.21
 -14 1 0 307.61 7.07
 14 -1 1 2 0.68
 14 1 1 1.92 0.63
 -14 1 -1 1.72 0.58
 -14 -1 -1 2.68 0.73
 -14 -1 -2 331.98 7.78
 -14 1 -2 352.18 7.82
 14 1 3 2.87 0.76
 14 -1 3 3.59 0.87
 -14 -1 -3 4.35 0.9
 -14 1 -3 3.4 0.77
 14 -1 4 0.45 0.36
 -14 -1 -4 0.34 0.3
 -14 1 -4 0.03 0.18
 -14 2 0 8.15 1.19
 14 -2 0 8.44 1.34
 -14 -2 -1 47.47 2.96
 -14 2 -1 52.42 3.03
 14 -2 1 60.41 3.67
 14 2 1 54.22 3.21
 -14 2 -1 51.11 2.96
 -14 2 -2 1.48 0.56
 14 -2 2 1.49 0.61
 14 -2 3 327.95 8.21
 14 2 3 295.8 7.59
 -14 2 -3 314.73 7.31
 -14 -2 -3 312.96 7.59
 14 -2 4 18.41 1.94
 14 2 4 15.68 1.77
 -14 2 -4 18.51 1.78
 -14 -2 -4 18.1 1.86
 -14 2 -4 13.97 1.88
 -14 2 -5 281.23 7.09
 -14 3 0 777.36 11.58
 14 -3 0 853.04 13.72
 -14 -3 -1 127.75 4.98
 -14 3 -1 119.99 4.58
 14 3 1 126.32 4.78
 14 -3 1 131.43 5.47
 -14 3 -2 322.48 7.45
 -14 -3 -2 287.21 7.26
 14 -3 2 308.5 8.23
 -14 3 -2 285.89 7
 -14 -3 -3 1.18 0.48
 -14 3 -3 0.59 0.35
 14 3 3 0.92 0.42
 -14 -3 -4 0.03 0.19
 -14 3 -4 0.13 0.22
 14 -3 4 0.04 0.15
 14 3 4 0.03 0.17
 -14 3 -5 3.43 0.8
 14 -4 0 14.12 1.73
 -14 4 0 11.32 1.44
 -14 -4 0 12.43 1.57
 14 -4 1 71.19 4.17
 14 4 1 67.95 3.5
 -14 4 1 64.37 3.39
 -14 4 -1 66.14 3.41
 -14 -4 -1 71.74 3.66
 14 4 2 8.09 1.21
 14 -4 2 8.98 1.41
 -14 4 -2 8.58 1.27
 -14 4 -2 10.31 1.35
 -14 -4 -2 7.62 1.16
 14 -4 3 155.8 5.93
 -14 4 -3 152.06 5.08
 14 -4 4 3.76 0.93
 14 4 4 4 0.85
 -14 -4 -4 4.8 0.93
 -14 4 -4 3.88 0.82
 -14 5 0 656.22 10.85
 -14 -5 0 708.11 12.02
 14 -5 1 0.48 0.39
 -14 5 -1 0.77 0.41
 -14 -5 -1 1.05 0.49
 -14 5 -2 259.17 6.6
 14 5 2 236.02 6.53
 14 -5 2 264.25 7.74
 -14 5 -2 234.03 6.64
 -14 -5 -2 246.39 6.59
 -14 -5 -3 7.29 1.14
 -14 5 -3 7.14 1.11
 14 -5 3 7.68 1.28
 14 5 4 0.35 0.25
 -14 5 -4 0.31 0.27
 -14 6 0 4.39 0.93
 14 -6 0 6.32 1.18
 -14 6 -1 30.69 2.4
 14 -6 1 24.98 2.68
 -14 -6 -1 29.85 2.41
 -14 6 1 30.76 2.39
 -14 6 -2 19.8 1.93
 14 6 2 19.23 1.84
 14 -6 2 18.14 2.1
 14 -6 3 312.95 8.15
 14 6 3 269.35 6.76
 -14 6 -3 301.68 7.13
 -14 -6 -3 254.36 6.68
 -14 6 -3 282.93 7.09
 14 7 0 145.05 5.08
 -14 -7 0 159.39 5.69
 -14 7 1 42.6 2.85
 14 -7 1 46.8 3.26
 -14 7 -1 40.19 2.8
 14 7 1 40.82 2.72
 14 -7 1 42.69 3.14
 -14 -7 -1 42.94 2.88
 -14 -7 -2 219.6 6.4
 14 -7 2 219.62 6.96
 -14 7 2 211.45 6.36
 14 -7 2 198.96 7.41
 14 7 3 0.2 0.26
 -14 7 -3 0.1 0.18
 -14 8 0 4.61 0.95
 -14 8 1 18.82 1.89
 14 -8 1 17.62 2.02
 -14 8 -1 17.5 1.9
 14 -8 -1 18.3 2.16
 -14 -8 -1 19.29 1.91
 14 8 1 16.67 1.7
 14 -8 2 8.44 1.39
 -14 8 2 6.23 1.11
 14 -8 -2 8.01 1.47
 -14 -8 -2 5.79 1.04
 14 8 2 6.54 1.09
 14 -9 0 243.6 7.64
 -14 -9 0 240.66 7.12
 14 -9 1 0.95 0.55
 14 -9 -1 1.19 0.58
 -14 -9 -1 1.38 0.55
 -15 0 -2 215.13 6.39
 15 0 2 206.12 6.5
 15 0 3 17.64 1.91
 -15 0 -4 158.19 5.28
 15 -1 1 107.62 4.75
 15 1 1 109.43 4.69
 -15 -1 -2 174.06 5.65
 -15 1 -2 161.35 5.29
 15 -1 2 173.24 5.99
 15 1 2 170.48 5.72
 -15 -1 -3 60.28 3.48
 15 -1 3 55.58 3.46
 15 1 3 55.92 3.3
 -15 1 -4 194.79 5.95
 15 -2 1 218.81 7.05
 -15 -2 -1 216.53 6.35
 -15 2 -2 90.66 3.98
 -15 -2 -2 88.42 4.01
 15 -2 2 86.52 4.29
 15 2 2 86.51 4.03
 -15 -2 -3 20.22 1.93
 15 2 3 17.49 1.88
 15 -2 3 18.29 1.98
 -15 -3 -1 237.85 6.65
 -15 3 -1 233.41 6.31
 15 3 2 96.33 4.21
 -15 -3 -2 97.97 4.18
 -15 3 -2 97.73 4.16
 15 -3 3 3 0.82
 15 3 3 2.94 0.77
 -15 3 -3 3.47 0.81
 -15 -3 -3 3.75 0.83
 15 -4 0 0.04 0.2
 -15 4 0 0.07 0.2
 -15 -4 -1 297.48 7.38
 -15 4 -1 280.03 6.99
 -15 4 -2 160.72 5.44
 15 4 2 154.04 5.52
 15 -4 2 167.7 6.07
 15 4 3 10.53 1.39
 15 -4 3 9.75 1.49
 -15 -4 -3 11.79 1.45
 -15 4 -3 11.28 1.4
 -15 4 -3 9.07 1.32
 -15 5 0 -0.03 0.17
 15 -5 0 0.12 0.28
 -15 -5 -1 112.06 4.52
 -15 -5 -2 103.39 4.33
 -15 5 -2 109.47 4.45
 -15 5 -3 34.38 2.43
 15 5 3 25.82 2.31
 -15 6 0 0.69 0.39
 15 -6 1 119.08 5.51
 -15 -6 -1 130.79 4.97
 -15 6 -1 116.12 4.59
 15 -6 2 117.23 5.14
 -15 6 -2 100.93 4.39
 -15 -6 -2 109.97 4.46
 -15 7 0 0.1 0.2
 -15 7 1 89.36 4.07
 15 7 1 94.65 4.13
 -15 7 -1 100.05 4.32
 -15 -7 -1 96.57 4.37
 15 -7 1 104.12 4.9
 16 0 2 286.58 7.63
 -16 0 -3 14.53 1.61
 16 -1 2 0.08 0.2
 16 1 2 0.3 0.28
 -16 1 -3 273.44 6.96
 -16 -1 -3 278.4 7.17
 16 -2 1 0.21 0.28
 16 -2 2 123.87 5.18
 16 2 2 123.81 4.88
 -16 2 -2 117.38 4.58
 -16 -2 -2 126.08 4.85
 -16 2 -3 7.2 1.14
 16 -3 1 79.12 4.16
 16 -3 2 38.55 3
 -16 3 -2 38.56 2.63
 -16 -3 -2 36.44 2.61
 -16 4 -1 3.96 0.87
 16 -4 1 4.38 0.99
 -16 4 -2 168.5 5.5
 -16 -4 -2 171.48 5.54
 16 -5 1 38.23 3.44
 -16 5 -1 46.74 2.9
 -16 6 0 89.05 4.09

_iucr_refine_fcf_details
;
data_MoCO6_19900
_computing_structure_refinement   'olex2.refine 1.5-alpha (Bourhis et al., 2015)'
_shelx_refln_list_code            4
loop_
  _space_group_symop_id
  _space_group_symop_operation_xyz
  1  x,y,z
  2  x+1/2,-y+1/2,-z+1/2
  3  -x,y+1/2,-z
  4  -x+1/2,-y,z+1/2
  5  -x,-y,-z
  6  -x-1/2,y-1/2,z-1/2
  7  x,-y-1/2,z
  8  x-1/2,y,-z-1/2

_space_group_crystal_system       orthorhombic
_space_group_IT_number            62
_space_group_name_H-M_alt         'P n m a'
_space_group_name_Hall            '-P 2ac 2n'
_symmetry_space_group_name_H-M    'P n m a'
_symmetry_space_group_name_Hall   '-P 2ac 2n'
_symmetry_Int_Tables_number       62
_cell_length_a                    11.82125(12)
_cell_length_b                    11.29740(8)
_cell_length_c                    6.39402(5)
_cell_angle_alpha                 90
_cell_angle_beta                  90
_cell_angle_gamma                 90
_cell_volume                      853.918(12)
loop_
  _refln_index_h
  _refln_index_k
  _refln_index_l
  _refln_F_squared_calc
  _refln_F_squared_meas
  _refln_F_squared_sigma
  _refln_F_squared_weight
  _refln_observed_status
0 0 2 801.596 825.729 5.674 0.160 o
0 0 4 0.520 2.536 0.642 213.868 o
0 0 6 1105.770 1143.850 10.097 0.085 o
0 0 8 1335.700 1267.480 100.799 0.011 o
0 1 1 2678.860 2924.810 25.242 0.015 o
0 1 3 3700.810 3627.320 34.765 0.009 o
0 1 5 4468.940 4674.520 48.600 0.006 o
0 1 7 606.810 626.083 9.422 0.232 o
0 2 0 16425.400 16657.500 87.754 0.000 o
0 2 2 12740.100 13333.900 115.456 0.001 o
0 2 4 0.758 1.224 0.261 607.492 o
0 2 6 317.301 342.319 5.844 0.678 o
0 2 8 1628.980 1594.050 25.108 0.037 o
0 3 1 20.443 19.247 0.500 34.119 o
0 3 3 20552.600 20922.300 44.914 0.000 o
0 3 5 2904.880 3040.660 26.108 0.013 o
0 3 7 534.103 537.231 7.095 0.309 o
0 4 0 23347.000 24336.100 118.378 0.000 o
0 4 2 3340.730 3210.230 18.513 0.011 o
0 4 4 2.027 2.263 0.305 301.791 o
0 4 6 700.563 715.751 8.390 0.192 o
0 4 8 302.061 301.868 9.229 0.578 o
0 5 1 778.486 744.931 8.805 0.165 o
0 5 3 2819.650 2897.610 26.533 0.014 o
0 5 5 7760.680 7872.480 77.997 0.002 o
0 5 7 186.709 186.775 4.476 1.539 o
0 6 0 25820.800 25930.400 182.066 0.000 o
0 6 2 2241.650 2149.640 25.110 0.022 o
0 6 4 5.120 5.561 0.473 119.887 o
0 6 6 539.040 525.677 6.979 0.311 o
0 6 8 890.355 871.050 9.849 0.128 o
0 7 1 659.646 638.675 6.001 0.231 o
0 7 3 5742.980 5752.240 62.618 0.003 o
0 7 5 635.860 649.201 7.786 0.228 o
0 7 7 520.594 512.867 5.548 0.342 o
0 8 0 10291.500 10494.600 64.473 0.001 o
0 8 2 3879.920 3974.080 30.581 0.008 o
0 8 4 5.779 6.459 0.576 98.627 o
0 8 6 293.792 297.910 4.304 0.855 o
0 8 8 1641.680 1548.240 104.697 0.009 o
0 9 1 535.083 560.242 5.041 0.320 o
0 9 3 1613.890 1647.040 14.413 0.042 o
0 9 5 1745.150 1757.450 22.012 0.034 o
0 9 7 326.384 314.549 4.424 0.746 o
0 10 0 10517.800 10761.900 35.563 0.001 o
0 10 2 483.710 497.970 4.497 0.388 o
0 10 4 0.004 0.164 0.186 2954.160 o
0 10 6 447.972 422.984 8.032 0.397 o
0 11 1 212.781 214.730 2.898 1.485 o
0 11 3 2720.370 2806.150 19.902 0.016 o
0 11 5 2014.620 1995.340 32.168 0.024 o
0 12 0 955.735 982.142 11.760 0.107 o
0 12 2 1329.520 1397.020 9.019 0.061 o
0 12 4 0.278 1.243 0.391 519.327 o
0 12 6 156.189 150.701 3.838 2.063 o
0 13 1 83.656 85.223 2.036 5.301 o
0 13 3 2134.090 2137.180 14.249 0.026 o
0 13 5 541.955 538.657 8.252 0.292 o
0 14 0 3510.550 3489.280 36.552 0.009 o
0 14 2 463.130 483.609 5.681 0.398 o
0 14 4 1.108 1.078 0.339 447.331 o
0 15 1 242.086 245.032 4.659 1.091 o
0 15 3 230.062 233.111 5.296 1.101 o
0 16 0 2264.590 2095.050 147.573 0.005 o
0 16 2 219.967 234.375 7.532 0.907 o
1 0 1 7506.530 7681.430 79.588 0.002 o
1 0 2 765.133 925.920 12.380 0.136 o
1 0 3 866.181 922.976 9.092 0.130 o
1 0 4 2198.950 2277.310 25.567 0.022 o
1 0 5 0.276 1.348 0.208 903.084 o
1 0 6 723.832 743.760 9.171 0.178 o
1 0 7 1588.540 1670.560 45.046 0.026 o
1 0 8 50.968 55.332 2.397 7.724 o
1 0 9 363.909 351.306 13.921 0.340 o
1 1 1 7976.050 8245.450 38.905 0.002 o
1 1 2 7258.670 7764.410 47.468 0.002 o
1 1 3 170.548 164.394 1.455 2.282 o
1 1 4 2430.330 2501.620 17.756 0.019 o
1 1 5 997.763 1066.970 8.949 0.102 o
1 1 6 393.638 422.460 5.373 0.510 o
1 1 7 1355.310 1398.620 15.638 0.056 o
1 1 8 35.255 34.652 1.351 15.121 o
1 1 9 377.841 351.814 30.188 0.116 o
1 2 1 6277.470 6498.240 30.984 0.003 o
1 2 2 4917.470 5129.880 40.246 0.005 o
1 2 3 962.467 1007.980 5.553 0.114 o
1 2 4 3349.740 3437.820 20.398 0.011 o
1 2 5 74.648 82.672 1.153 6.673 o
1 2 6 203.838 213.868 2.716 1.569 o
1 2 7 1301.430 1344.060 15.287 0.060 o
1 2 8 14.464 15.476 0.877 39.038 o
1 3 1 8.308 5.618 0.201 102.973 o
1 3 2 2407.130 2421.790 20.724 0.020 o
1 3 3 1043.080 1093.020 6.636 0.098 o
1 3 4 4546.850 4688.790 34.384 0.006 o
1 3 5 364.200 370.209 2.499 0.658 o
1 3 6 253.240 264.863 3.100 1.120 o
1 3 7 960.758 979.348 6.935 0.115 o
1 3 8 12.642 12.462 0.699 49.330 o
1 4 1 2273.030 2196.130 18.154 0.023 o
1 4 2 1147.120 1110.420 9.661 0.084 o
1 4 3 2411.750 2581.610 22.442 0.019 o
1 4 4 4814.070 4943.690 38.717 0.005 o
1 4 5 311.240 331.262 3.131 0.809 o
1 4 6 854.822 866.495 5.763 0.144 o
1 4 7 905.261 919.386 5.302 0.130 o
1 4 8 26.846 27.922 1.240 19.750 o
1 5 1 3156.540 3042.370 28.437 0.012 o
1 5 2 2580.350 2561.050 16.946 0.018 o
1 5 3 15.774 20.203 0.810 35.334 o
1 5 4 3798.160 3883.010 27.811 0.008 o
1 5 5 711.028 718.315 6.288 0.197 o
1 5 6 79.773 82.191 1.846 5.748 o
1 5 7 444.320 451.298 4.714 0.446 o
1 5 8 38.050 39.373 1.257 14.220 o
1 6 1 2839.710 2765.060 18.463 0.015 o
1 6 2 542.947 505.108 2.968 0.349 o
1 6 3 722.556 745.772 5.136 0.193 o
1 6 4 2272.650 2334.740 21.750 0.021 o
1 6 5 59.959 61.112 1.136 9.003 o
1 6 6 375.995 373.075 3.179 0.621 o
1 6 7 957.205 940.010 6.880 0.118 o
1 6 8 32.106 33.328 1.202 17.017 o
1 7 1 1521.790 1511.760 15.480 0.047 o
1 7 2 2241.460 2276.360 18.347 0.023 o
1 7 3 851.866 866.620 7.307 0.141 o
1 7 4 1131.520 1171.460 12.866 0.079 o
1 7 5 278.815 287.154 2.546 1.001 o
1 7 6 429.547 421.778 3.518 0.497 o
1 7 7 1240.020 1219.520 7.121 0.074 o
1 7 8 7.728 8.461 0.593 77.580 o
1 8 1 2838.810 2913.400 16.947 0.015 o
1 8 2 915.833 926.522 7.935 0.124 o
1 8 3 60.656 63.525 1.331 8.507 o
1 8 4 819.914 841.818 5.538 0.154 o
1 8 5 0.789 1.252 0.189 699.899 o
1 8 6 87.267 93.620 1.979 4.998 o
1 8 7 918.719 914.054 9.538 0.121 o
1 8 8 2.303 2.837 1.273 63.628 o
1 9 1 2016.410 2060.020 9.497 0.029 o
1 9 2 1487.530 1526.920 14.497 0.048 o
1 9 3 121.791 131.682 1.630 3.423 o
1 9 4 1083.110 1114.410 8.160 0.091 o
1 9 5 414.404 410.120 3.646 0.523 o
1 9 6 204.288 202.393 2.455 1.635 o
1 9 7 589.329 568.071 6.277 0.277 o
1 10 1 1034.550 1049.250 7.662 0.100 o
1 10 2 148.705 153.418 1.994 2.590 o
1 10 3 436.221 438.054 3.333 0.481 o
1 10 4 1567.760 1596.100 12.660 0.045 o
1 10 5 75.779 76.359 1.739 6.255 o
1 10 6 449.482 428.567 5.038 0.447 o
1 10 7 468.926 466.027 8.074 0.363 o
1 11 1 442.374 461.204 3.622 0.457 o
1 11 2 468.322 473.066 4.210 0.417 o
1 11 3 73.679 79.193 1.510 6.537 o
1 11 4 1520.620 1560.100 11.128 0.048 o
1 11 5 107.840 105.892 1.782 4.121 o
1 11 6 53.067 53.130 1.331 10.027 o
1 12 1 710.226 733.296 5.610 0.197 o
1 12 2 875.060 878.428 7.457 0.136 o
1 12 3 286.222 295.338 2.896 0.946 o
1 12 4 1238.780 1240.770 14.029 0.068 o
1 12 5 107.814 110.647 2.137 3.875 o
1 12 6 132.000 128.891 3.203 2.701 o
1 13 1 335.228 347.403 3.081 0.731 o
1 13 2 323.941 327.858 3.526 0.768 o
1 13 3 197.460 204.793 2.752 1.646 o
1 13 4 784.575 790.402 9.212 0.157 o
1 13 5 88.607 87.285 1.739 5.264 o
1 14 1 579.601 585.244 4.292 0.291 o
1 14 2 88.751 88.632 1.732 5.231 o
1 14 3 64.235 64.853 1.986 7.108 o
1 14 4 409.811 403.010 7.827 0.445 o
1 15 1 757.255 766.963 13.521 0.147 o
1 15 2 377.492 377.509 4.921 0.575 o
1 15 3 37.294 36.309 1.668 12.990 o
1 16 1 418.279 425.173 8.328 0.415 o
1 16 2 80.718 97.498 7.583 1.636 o
2 0 0 7.570 9.317 1.026 53.745 o
2 0 1 2691.870 2652.730 26.171 0.016 o
2 0 2 10951.200 11215.700 90.007 0.001 o
2 0 3 10911.700 10803.100 96.886 0.001 o
2 0 4 715.189 763.198 5.644 0.191 o
2 0 5 1413.920 1528.770 21.931 0.046 o
2 0 6 20.083 18.048 0.909 30.442 o
2 0 7 371.041 370.882 9.690 0.447 o
2 0 8 4.082 3.534 0.573 135.074 o
2 0 9 126.047 123.871 5.628 1.924 o
2 1 0 15967.000 15181.700 42.120 0.001 o
2 1 1 3.644 4.997 0.206 184.500 o
2 1 2 5288.620 5439.400 42.960 0.004 o
2 1 3 20.295 23.469 0.898 28.043 o
2 1 4 0.607 1.080 0.135 931.808 o
2 1 5 111.382 119.150 1.402 3.954 o
2 1 6 1378.220 1460.390 16.381 0.053 o
2 1 7 12.644 11.386 0.619 52.778 o
2 1 8 1602.580 1581.220 28.069 0.036 o
2 1 9 29.282 28.490 2.226 12.446 o
2 2 0 0.025 0.613 0.146 2302.870 o
2 2 1 2901.820 2903.400 31.609 0.013 o
2 2 2 1.144 1.608 0.185 539.819 o
2 2 3 5057.420 4838.850 42.578 0.005 o
2 2 4 2008.560 2157.690 20.654 0.026 o
2 2 5 3830.790 4026.190 34.478 0.008 o
2 2 6 15.987 17.397 0.572 40.707 o
2 2 7 205.082 210.122 2.422 1.603 o
2 2 8 0.459 0.944 0.227 864.092 o
2 2 9 91.006 83.438 4.620 2.994 o
2 3 0 17396.700 17466.000 154.261 0.000 o
2 3 1 15990.500 16573.700 54.865 0.000 o
2 3 2 2274.830 2186.050 19.868 0.023 o
2 3 3 19.374 20.769 0.527 34.231 o
2 3 4 0.583 1.375 0.159 813.749 o
2 3 5 1.486 2.763 0.233 361.277 o
2 3 6 1533.700 1574.060 13.979 0.046 o
2 3 7 48.847 51.105 1.209 11.070 o
2 3 8 896.559 900.329 12.775 0.117 o
2 3 9 6.230 6.841 1.856 28.537 o
2 4 0 17.819 17.180 0.575 38.050 o
2 4 1 1462.090 1403.020 13.565 0.052 o
2 4 2 11.711 13.708 0.459 56.159 o
2 4 3 8110.060 8194.930 76.136 0.002 o
2 4 4 0.209 0.391 0.107 2399.630 o
2 4 5 2499.000 2551.820 24.413 0.018 o
2 4 6 354.751 365.968 2.962 0.672 o
2 4 7 194.148 195.578 2.384 1.753 o
2 4 8 1.426 1.352 0.282 428.458 o
2 5 0 3677.500 3303.630 45.222 0.009 o
2 5 1 14.985 17.690 0.795 38.289 o
2 5 2 4661.780 4668.290 26.668 0.006 o
2 5 3 321.720 338.519 2.599 0.787 o
2 5 4 0.439 1.166 0.180 924.643 o
2 5 5 14.296 14.225 0.604 46.088 o
2 5 6 955.164 965.966 7.076 0.116 o
2 5 7 348.847 325.747 4.237 0.692 o
2 5 8 1205.450 1155.360 12.194 0.074 o
2 6 0 1.010 1.613 0.219 539.671 o
2 6 1 1116.700 1091.550 8.012 0.089 o
2 6 2 637.161 663.156 5.621 0.237 o
2 6 3 5026.160 5089.330 28.913 0.005 o
2 6 4 2.231 1.943 0.198 341.672 o
2 6 5 1678.280 1693.030 14.189 0.039 o
2 6 6 35.241 34.709 1.052 16.517 o
2 6 7 223.589 218.113 2.773 1.417 o
2 6 8 4.602 4.457 0.451 137.726 o
2 7 0 10661.600 10758.300 71.181 0.001 o
2 7 1 1406.280 1475.310 14.811 0.052 o
2 7 2 1549.130 1585.160 11.090 0.046 o
2 7 3 36.585 39.757 0.802 16.267 o
2 7 4 0.019 0.679 0.182 1823.110 o
2 7 5 44.903 45.213 0.975 12.911 o
2 7 6 1024.100 1008.310 7.215 0.104 o
2 7 7 49.313 46.197 1.419 10.863 o
2 7 8 869.326 839.337 13.662 0.123 o
2 8 0 5.569 5.396 0.476 115.233 o
2 8 1 1081.580 1109.500 6.150 0.093 o
2 8 2 273.699 287.429 2.155 1.034 o
2 8 3 2116.450 2156.080 17.053 0.025 o
2 8 4 386.605 389.580 3.417 0.584 o
2 8 5 1773.620 1749.150 16.383 0.036 o
2 8 6 163.789 152.913 2.200 2.334 o
2 8 7 139.105 137.209 2.188 2.840 o
2 8 8 0.010 0.345 0.610 327.305 o
2 9 0 4111.260 4235.980 30.192 0.007 o
2 9 1 0.247 0.222 0.096 2764.180 o
2 9 2 1555.950 1601.420 14.452 0.045 o
2 9 3 1.016 1.878 0.334 405.708 o
2 9 4 0.399 0.724 0.184 1136.150 o
2 9 5 20.125 20.247 0.680 32.098 o
2 9 6 616.461 596.390 6.185 0.257 o
2 9 7 18.789 22.138 0.926 29.546 o
2 10 0 0.541 0.699 0.244 843.856 o
2 10 1 418.869 433.592 3.139 0.509 o
2 10 2 173.174 175.998 1.965 2.113 o
2 10 3 3036.960 3053.960 15.092 0.013 o
2 10 4 141.996 135.703 1.961 2.862 o
2 10 5 834.508 852.509 10.566 0.137 o
2 10 6 121.964 121.678 2.321 3.295 o
2 10 7 137.620 131.757 3.655 2.440 o
2 11 0 2071.350 2099.210 17.354 0.026 o
2 11 1 316.123 318.496 2.495 0.832 o
2 11 2 1156.280 1195.640 12.807 0.076 o
2 11 3 58.010 54.439 1.248 9.458 o
2 11 4 0.754 1.065 0.220 703.799 o
2 11 5 0.235 0.948 0.192 1159.850 o
2 11 6 465.584 463.619 4.943 0.415 o
2 12 0 0.001 0.427 0.247 1537.200 o
2 12 1 297.656 302.283 3.223 0.885 o
2 12 2 108.664 111.032 1.918 3.951 o
2 12 3 1344.780 1367.910 10.520 0.061 o
2 12 4 134.746 140.765 2.196 2.885 o
2 12 5 1079.700 1065.180 16.669 0.081 o
2 12 6 23.918 22.256 1.488 20.087 o
2 13 0 2142.380 2155.880 29.642 0.022 o
2 13 1 456.891 443.982 5.333 0.427 o
2 13 2 507.360 528.565 4.877 0.353 o
2 13 3 3.530 4.090 0.382 173.988 o
2 13 4 0.643 1.186 0.289 604.205 o
2 13 5 0.693 0.901 0.286 637.701 o
2 14 0 5.075 5.421 0.568 110.885 o
2 14 1 217.330 216.063 2.705 1.470 o
2 14 2 84.399 85.311 1.860 5.417 o
2 14 3 982.585 989.330 12.265 0.102 o
2 14 4 10.825 10.828 0.825 51.727 o
2 15 0 1026.860 1026.450 11.880 0.096 o
2 15 1 74.776 81.862 2.059 5.809 o
2 15 2 514.072 535.519 9.978 0.286 o
2 15 3 0.147 0.287 0.296 1084.760 o
2 16 0 2.229 2.333 0.728 144.347 o
2 16 1 122.579 131.358 8.883 1.124 o
3 0 1 6539.830 6338.970 53.996 0.003 o
3 0 2 12454.400 12185.600 118.808 0.001 o
3 0 3 3637.660 3902.630 36.916 0.008 o
3 0 4 3587.100 3842.090 25.904 0.009 o
3 0 5 756.561 827.817 9.652 0.158 o
3 0 6 918.540 985.540 14.458 0.105 o
3 0 7 652.723 692.901 15.830 0.162 o
3 0 8 28.219 28.594 1.587 16.616 o
3 0 9 311.788 296.696 11.123 0.485 o
3 1 1 7893.510 7792.640 30.724 0.002 o
3 1 2 931.161 864.231 10.345 0.121 o
3 1 3 220.247 209.951 2.384 1.499 o
3 1 4 4008.270 4244.080 27.867 0.007 o
3 1 5 5.881 9.297 0.504 92.043 o
3 1 6 909.329 937.097 10.218 0.119 o
3 1 7 439.387 452.548 4.834 0.449 o
3 1 8 17.807 21.740 0.915 30.771 o
3 1 9 230.696 214.331 5.292 1.136 o
3 2 1 11123.300 11200.200 58.966 0.001 o
3 2 2 666.171 613.421 5.630 0.235 o
3 2 3 375.895 375.176 4.842 0.582 o
3 2 4 3413.060 3518.020 35.724 0.010 o
3 2 5 756.210 792.808 6.731 0.172 o
3 2 6 1024.840 1075.430 11.157 0.095 o
3 2 7 263.996 269.131 3.998 1.012 o
3 2 8 19.581 19.441 0.892 30.484 o
3 2 9 318.726 299.615 7.023 0.662 o
3 3 1 15957.700 15687.000 94.021 0.000 o
3 3 2 1183.400 1103.470 7.670 0.083 o
3 3 3 245.559 235.714 2.148 1.283 o
3 3 4 3050.790 3085.120 22.963 0.013 o
3 3 5 270.856 280.638 2.525 1.044 o
3 3 6 1894.630 1907.780 18.407 0.031 o
3 3 7 460.181 462.645 4.250 0.430 o
3 3 8 16.430 19.107 1.180 29.270 o
3 3 9 371.333 387.818 14.080 0.323 o
3 4 1 5600.510 5361.100 34.440 0.004 o
3 4 2 1458.100 1387.870 8.877 0.055 o
3 4 3 184.959 166.749 2.256 1.993 o
3 4 4 1972.180 1976.680 18.015 0.029 o
3 4 5 70.354 71.873 1.234 7.342 o
3 4 6 236.798 242.943 3.113 1.247 o
3 4 7 428.373 432.242 6.588 0.440 o
3 4 8 23.040 23.781 1.061 24.301 o
3 5 1 5260.650 5162.230 31.529 0.004 o
3 5 2 3658.070 3777.310 23.863 0.009 o
3 5 3 1155.800 1208.860 7.375 0.081 o
3 5 4 1801.540 1789.710 14.453 0.035 o
3 5 5 21.192 22.543 0.706 29.676 o
3 5 6 1122.010 1126.110 8.269 0.086 o
3 5 7 800.374 770.550 8.787 0.158 o
3 5 8 17.474 20.830 0.945 31.102 o
3 6 1 4096.640 4095.680 24.534 0.007 o
3 6 2 2125.070 2124.890 12.367 0.026 o
3 6 3 706.419 709.159 6.934 0.197 o
3 6 4 1884.900 1946.930 21.852 0.030 o
3 6 5 380.905 377.022 3.316 0.606 o
3 6 6 588.352 586.778 4.453 0.285 o
3 6 7 383.937 387.258 4.099 0.577 o
3 6 8 21.194 23.441 1.048 25.736 o
3 7 1 4277.770 4372.130 29.280 0.006 o
3 7 2 78.242 85.625 1.182 6.306 o
3 7 3 4.247 5.406 0.545 123.477 o
3 7 4 2413.360 2429.600 16.535 0.020 o
3 7 5 19.950 20.131 0.826 30.648 o
3 7 6 617.388 615.742 6.752 0.249 o
3 7 7 151.050 148.009 2.119 2.569 o
3 7 8 7.979 9.772 1.212 44.592 o
3 8 1 3194.370 3233.940 16.164 0.012 o
3 8 2 1184.380 1231.900 10.093 0.075 o
3 8 3 651.218 679.763 6.287 0.224 o
3 8 4 2019.820 2025.320 15.554 0.028 o
3 8 5 726.843 717.145 5.843 0.194 o
3 8 6 775.091 749.309 6.292 0.174 o
3 8 7 177.957 167.182 2.499 2.029 o
3 9 1 1774.340 1880.910 16.260 0.034 o
3 9 2 563.892 565.657 4.758 0.303 o
3 9 3 108.524 102.640 1.530 4.267 o
3 9 4 1525.800 1528.770 12.336 0.048 o
3 9 5 0.139 0.465 0.154 2057.570 o
3 9 6 392.723 383.083 3.529 0.577 o
3 9 7 263.951 256.033 3.075 1.095 o
3 10 1 1280.940 1323.540 7.266 0.067 o
3 10 2 1132.450 1171.430 6.261 0.085 o
3 10 3 311.527 331.858 3.613 0.791 o
3 10 4 755.776 759.438 6.096 0.179 o
3 10 5 85.882 86.279 1.631 5.505 o
3 10 6 138.521 129.055 2.330 2.884 o
3 10 7 309.157 289.035 10.690 0.510 o
3 11 1 1990.260 1994.390 15.899 0.029 o
3 11 2 868.972 885.654 6.983 0.137 o
3 11 3 196.973 196.235 2.382 1.727 o
3 11 4 623.007 629.977 7.145 0.241 o
3 11 5 85.455 86.949 1.823 5.356 o
3 11 6 604.677 593.648 7.313 0.256 o
3 12 1 1216.500 1209.980 10.443 0.073 o
3 12 2 87.209 90.697 1.750 5.241 o
3 12 3 21.393 24.631 1.127 24.381 o
3 12 4 544.985 549.847 4.161 0.324 o
3 12 5 74.298 70.637 1.772 6.495 o
3 12 6 153.900 158.112 5.291 1.690 o
3 13 1 1135.620 1118.920 15.599 0.077 o
3 13 2 287.979 293.792 3.154 0.932 o
3 13 3 33.110 32.347 1.139 17.180 o
3 13 4 583.376 596.425 5.907 0.275 o
3 13 5 42.668 42.506 2.060 10.132 o
3 14 1 564.882 563.484 6.077 0.293 o
3 14 2 508.567 516.045 7.177 0.331 o
3 14 3 187.110 188.751 2.826 1.787 o
3 14 4 494.057 491.377 7.737 0.341 o
3 15 1 301.119 290.277 5.267 0.797 o
3 15 2 165.560 157.407 3.010 2.122 o
3 15 3 18.418 17.335 2.500 13.652 o
3 16 1 359.463 323.207 12.220 0.398 o
4 0 0 3080.510 3286.010 12.184 0.012 o
4 0 1 2118.560 2263.450 30.014 0.022 o
4 0 2 9101.980 8905.310 86.671 0.001 o
4 0 3 491.541 549.094 9.054 0.307 o
4 0 4 1.129 1.469 0.209 538.717 o
4 0 5 0.119 0.372 0.146 2426.230 o
4 0 6 1629.300 1742.410 12.033 0.041 o
4 0 7 128.381 131.531 2.584 2.965 o
4 0 8 901.587 908.931 16.803 0.105 o
4 0 9 11.957 9.526 1.265 37.097 o
4 1 0 0.694 1.168 0.163 803.767 o
4 1 1 1940.050 1848.650 14.963 0.031 o
4 1 2 11.398 12.630 0.325 61.756 o
4 1 3 9538.170 9485.030 77.103 0.001 o
4 1 4 33.255 23.608 0.626 21.570 o
4 1 5 2894.370 2965.330 23.135 0.014 o
4 1 6 41.304 48.504 1.147 12.844 o
4 1 7 83.337 84.885 1.588 5.710 o
4 1 8 0.291 0.463 0.208 1314.040 o
4 1 9 85.760 82.632 4.557 3.126 o
4 2 0 10261.900 9721.980 82.436 0.001 o
4 2 1 1164.290 1215.050 8.122 0.079 o
4 2 2 2527.140 2372.780 25.092 0.018 o
4 2 3 1.812 4.244 0.282 259.599 o
4 2 4 0.758 1.727 0.220 588.938 o
4 2 5 0.498 0.982 0.177 954.733 o
4 2 6 2257.200 2302.050 20.751 0.022 o
4 2 7 52.511 48.578 1.363 10.350 o
4 2 8 886.965 878.163 11.178 0.124 o
4 3 0 0.388 1.771 0.253 652.648 o
4 3 1 3768.550 3625.420 24.088 0.009 o
4 3 2 0.162 0.693 0.243 1144.450 o
4 3 3 1620.410 1556.790 15.854 0.043 o
4 3 4 1178.100 1157.520 13.587 0.075 o
4 3 5 2680.680 2704.020 19.575 0.016 o
4 3 6 179.513 174.665 2.521 1.970 o
4 3 7 113.530 115.689 2.171 3.634 o
4 3 8 3.877 3.887 0.428 160.094 o
4 4 0 5436.100 5071.360 62.080 0.004 o
4 4 1 1113.990 1144.300 8.454 0.086 o
4 4 2 4622.400 4494.850 38.531 0.006 o
4 4 3 9.705 9.753 0.443 71.272 o
4 4 4 1.980 2.261 0.208 346.822 o
4 4 5 13.498 13.323 0.587 49.141 o
4 4 6 1565.370 1574.800 14.926 0.044 o
4 4 7 8.717 7.611 0.568 75.967 o
4 4 8 1844.290 1808.960 29.245 0.029 o
4 5 0 5.682 6.013 0.392 118.048 o
4 5 1 1794.730 1775.900 14.672 0.035 o
4 5 2 791.187 860.663 5.122 0.159 o
4 5 3 5608.070 5530.810 31.445 0.004 o
4 5 4 126.475 122.873 1.453 3.466 o
4 5 5 710.707 726.509 7.620 0.191 o
4 5 6 10.431 12.293 0.593 58.582 o
4 5 7 203.619 198.286 2.559 1.645 o
4 5 8 0.236 0.695 0.254 1025.910 o
4 6 0 1535.770 1429.350 18.840 0.046 o
4 6 1 184.411 227.283 2.161 1.725 o
4 6 2 3333.080 3382.400 25.793 0.011 o
4 6 3 87.285 84.811 1.197 5.774 o
4 6 4 0.290 0.677 0.139 1515.400 o
4 6 5 0.482 1.024 0.165 982.478 o
4 6 6 1336.930 1360.880 6.923 0.063 o
4 6 7 0.672 0.967 0.221 757.535 o
4 6 8 800.268 777.505 15.213 0.132 o
4 7 0 3.875 4.322 0.338 169.768 o
4 7 1 943.500 951.937 7.554 0.118 o
4 7 2 241.471 237.040 2.017 1.309 o
4 7 3 2773.620 2776.170 26.151 0.015 o
4 7 4 535.766 514.800 4.651 0.339 o
4 7 5 3298.990 3286.490 24.067 0.011 o
4 7 6 2.433 2.704 0.370 239.476 o
4 7 7 33.227 32.892 1.434 15.485 o
4 8 0 1716.960 1727.500 15.843 0.037 o
4 8 1 486.754 490.469 3.976 0.394 o
4 8 2 1382.830 1447.250 8.889 0.057 o
4 8 3 1.509 3.285 0.270 317.496 o
4 8 4 2.466 3.060 0.283 255.906 o
4 8 5 6.215 4.821 0.331 123.864 o
4 8 6 1115.830 1089.900 12.506 0.084 o
4 8 7 1.158 1.679 0.412 338.477 o
4 9 0 1.312 1.966 0.283 400.727 o
4 9 1 562.546 565.560 4.463 0.306 o
4 9 2 0.126 0.890 0.294 879.940 o
4 9 3 3227.610 3236.160 26.886 0.011 o
4 9 4 4.074 3.265 0.306 183.417 o
4 9 5 1321.420 1287.240 13.505 0.062 o
4 9 6 4.218 3.855 0.372 162.005 o
4 9 7 41.672 41.547 1.445 12.499 o
4 10 0 836.583 867.688 9.902 0.137 o
4 10 1 465.878 460.702 3.923 0.429 o
4 10 2 2142.200 2191.810 15.784 0.025 o
4 10 3 25.895 27.402 0.951 22.536 o
4 10 4 0.332 0.601 0.157 1419.870 o
4 10 5 4.934 5.975 0.488 118.049 o
4 10 6 656.390 637.665 8.676 0.217 o
4 10 7 4.079 2.705 1.273 58.308 o
4 11 0 9.324 10.079 0.760 59.490 o
4 11 1 547.007 554.324 4.253 0.320 o
4 11 2 58.653 52.959 1.258 9.453 o
4 11 3 961.723 971.783 6.225 0.116 o
4 11 4 4.402 4.444 0.424 144.911 o
4 11 5 566.013 569.199 8.215 0.272 o
4 11 6 2.642 4.061 0.434 187.945 o
4 12 0 3085.320 3116.990 46.755 0.011 o
4 12 1 0.110 0.695 0.189 1538.210 o
4 12 2 700.319 709.243 5.126 0.206 o
4 12 3 0.747 1.253 0.235 646.577 o
4 12 4 0.009 0.191 0.132 4525.680 o
4 12 5 1.156 1.584 0.277 457.696 o
4 13 0 0.042 0.431 0.260 1359.840 o
4 13 1 373.498 371.121 5.674 0.566 o
4 13 2 4.277 5.324 0.464 134.250 o
4 13 3 633.891 649.557 5.685 0.241 o
4 13 4 89.578 78.888 1.822 5.353 o
4 13 5 745.287 777.547 34.736 0.068 o
4 14 0 359.031 366.199 5.357 0.601 o
4 14 1 13.694 11.602 0.720 47.418 o
4 14 2 692.991 705.725 11.618 0.178 o
4 14 3 1.004 1.339 0.295 489.572 o
4 14 4 0.373 0.573 0.387 586.375 o
4 15 0 1.133 0.851 0.432 366.762 o
4 15 1 94.415 86.628 2.332 4.580 o
4 15 2 0.404 0.787 0.336 653.823 o
4 15 3 1142.330 1172.290 19.183 0.069 o
4 16 0 213.615 166.916 11.243 0.654 o
5 0 1 4148.360 3830.210 34.801 0.007 o
5 0 2 7086.740 6693.050 49.375 0.003 o
5 0 3 100.134 116.238 1.417 4.371 o
5 0 4 3706.310 3835.850 40.904 0.008 o
5 0 5 912.857 948.959 8.061 0.122 o
5 0 6 533.282 538.183 6.944 0.311 o
5 0 7 110.209 119.844 2.468 3.527 o
5 0 8 19.315 19.009 1.281 25.691 o
5 1 1 3149.930 2833.160 26.730 0.012 o
5 1 2 863.291 771.630 5.295 0.153 o
5 1 3 1921.300 1962.360 9.319 0.032 o
5 1 4 2547.960 2675.520 26.108 0.017 o
5 1 5 239.609 262.736 2.863 1.202 o
5 1 6 778.968 816.025 9.915 0.153 o
5 1 7 353.715 368.542 5.058 0.617 o
5 1 8 17.032 16.103 0.972 33.580 o
5 2 1 1906.170 1692.960 15.975 0.033 o
5 2 2 3121.960 2968.400 24.672 0.012 o
5 2 3 239.223 229.018 2.419 1.320 o
5 2 4 1615.190 1627.510 18.001 0.041 o
5 2 5 297.543 291.339 4.705 0.833 o
5 2 6 1003.980 1010.240 12.156 0.099 o
5 2 7 512.934 518.173 4.908 0.352 o
5 2 8 1.304 0.665 0.226 577.584 o
5 3 1 8397.310 8017.410 65.834 0.002 o
5 3 2 2930.610 2865.130 25.323 0.014 o
5 3 3 515.092 522.618 4.479 0.353 o
5 3 4 519.094 514.885 3.855 0.358 o
5 3 5 127.433 136.457 1.899 3.159 o
5 3 6 391.128 408.329 3.582 0.559 o
5 3 7 706.328 716.602 6.419 0.198 o
5 3 8 1.671 0.851 0.244 460.059 o
5 4 1 5725.460 5575.330 33.342 0.004 o
5 4 2 3859.460 3891.450 31.217 0.008 o
5 4 3 66.668 65.602 1.154 8.038 o
5 4 4 518.654 519.746 5.207 0.344 o
5 4 5 289.250 276.477 2.588 0.981 o
5 4 6 561.422 559.030 5.230 0.303 o
5 4 7 543.095 533.959 9.443 0.279 o
5 4 8 7.988 5.638 0.533 88.143 o
5 5 1 3631.860 3540.690 33.805 0.009 o
5 5 2 264.971 234.918 3.947 1.077 o
5 5 3 1205.070 1179.470 9.882 0.076 o
5 5 4 646.641 639.669 4.929 0.241 o
5 5 5 106.692 107.797 1.525 4.243 o
5 5 6 966.210 971.963 7.398 0.114 o
5 5 7 644.849 640.470 8.723 0.220 o
5 5 8 21.187 19.375 1.080 26.813 o
5 6 1 2219.060 2290.540 22.764 0.022 o
5 6 2 2546.320 2628.520 23.382 0.017 o
5 6 3 1.358 1.738 0.199 471.110 o
5 6 4 1380.140 1390.550 15.735 0.055 o
5 6 5 292.345 287.967 3.902 0.893 o
5 6 6 534.036 547.012 4.303 0.331 o
5 6 7 234.035 234.054 3.185 1.278 o
5 6 8 10.004 10.082 1.133 43.570 o
5 7 1 2039.390 2053.000 12.711 0.028 o
5 7 2 1569.420 1582.340 12.360 0.045 o
5 7 3 440.914 461.056 4.885 0.442 o
5 7 4 1600.330 1594.900 17.490 0.042 o
5 7 5 212.626 201.873 2.378 1.582 o
5 7 6 225.005 226.893 2.795 1.380 o
5 7 7 170.373 167.493 2.593 2.094 o
5 8 1 533.815 540.124 4.851 0.330 o
5 8 2 1465.720 1464.620 13.021 0.051 o
5 8 3 282.031 270.286 2.687 1.014 o
5 8 4 1744.350 1767.910 21.550 0.034 o
5 8 5 284.913 283.727 2.555 0.984 o
5 8 6 558.765 548.517 5.600 0.305 o
5 8 7 167.016 163.125 3.025 2.072 o
5 9 1 1124.600 1134.440 8.141 0.086 o
5 9 2 404.823 422.493 3.217 0.535 o
5 9 3 518.320 539.039 4.552 0.343 o
5 9 4 891.917 882.284 6.763 0.134 o
5 9 5 95.767 92.656 1.830 4.770 o
5 9 6 398.074 388.336 8.378 0.450 o
5 9 7 230.842 224.706 4.134 1.232 o
5 10 1 1709.510 1687.820 13.092 0.039 o
5 10 2 1302.550 1305.410 8.509 0.066 o
5 10 3 5.151 6.405 0.444 117.339 o
5 10 4 493.936 499.259 5.215 0.371 o
5 10 5 161.033 162.529 2.458 2.258 o
5 10 6 221.370 219.227 3.851 1.322 o
5 11 1 1618.080 1644.670 13.608 0.042 o
5 11 2 438.698 444.757 4.295 0.462 o
5 11 3 194.243 196.766 2.585 1.724 o
5 11 4 207.987 208.059 3.800 1.436 o
5 11 5 78.874 73.644 1.787 6.099 o
5 11 6 269.715 268.599 7.387 0.764 o
5 12 1 782.354 779.010 7.860 0.164 o
5 12 2 508.694 508.994 4.679 0.361 o
5 12 3 38.147 37.882 1.162 14.762 o
5 12 4 178.620 178.072 3.771 1.751 o
5 12 5 30.218 34.141 1.184 17.620 o
5 13 1 882.705 887.183 8.868 0.130 o
5 13 2 464.573 476.262 5.438 0.403 o
5 13 3 73.735 78.582 1.967 6.061 o
5 13 4 190.175 190.463 2.830 1.753 o
5 14 1 444.806 442.258 8.550 0.382 o
5 14 2 538.346 538.237 7.536 0.302 o
5 14 3 16.433 14.213 0.821 38.227 o
5 14 4 391.045 395.958 16.281 0.268 o
5 15 1 212.154 203.283 3.930 1.410 o
5 15 2 109.228 112.046 4.607 2.549 o
6 0 0 11.408 11.015 0.748 52.602 o
6 0 1 859.805 780.021 7.666 0.147 o
6 0 2 811.045 850.730 5.575 0.155 o
6 0 3 2155.410 2103.650 27.581 0.023 o
6 0 4 0.704 1.887 0.264 531.267 o
6 0 5 8341.650 8186.370 65.708 0.002 o
6 0 6 0.380 0.177 0.225 1292.690 o
6 0 7 71.287 72.771 2.727 5.418 o
6 0 8 0.612 0.915 0.403 468.587 o
6 1 0 9459.260 8861.550 110.348 0.001 o
6 1 1 0.007 0.296 0.072 6050.080 o
6 1 2 4835.420 4492.950 45.339 0.005 o
6 1 3 9.677 9.714 0.359 74.282 o
6 1 4 0.717 1.363 0.156 754.677 o
6 1 5 81.361 77.678 1.377 6.209 o
6 1 6 1021.050 1049.970 16.328 0.087 o
6 1 7 1.921 2.559 0.305 298.760 o
6 1 8 309.680 304.646 3.650 0.830 o
6 2 0 51.664 47.850 1.073 11.176 o
6 2 1 554.014 479.002 6.080 0.325 o
6 2 2 0.880 2.784 0.345 359.447 o
6 2 3 7528.170 7652.800 55.434 0.002 o
6 2 4 182.366 183.247 1.671 2.005 o
6 2 5 2023.820 2034.850 16.116 0.028 o
6 2 6 6.696 9.970 0.611 78.057 o
6 2 7 294.578 287.006 3.964 0.885 o
6 2 8 0.696 1.042 0.267 647.724 o
6 3 0 4798.530 4358.240 96.976 0.004 o
6 3 1 1138.300 1145.570 10.848 0.081 o
6 3 2 8484.420 8349.190 45.120 0.002 o
6 3 3 7.323 8.355 0.414 90.302 o
6 3 4 1.141 1.288 0.198 569.171 o
6 3 5 12.896 12.097 0.553 52.896 o
6 3 6 623.883 633.018 6.577 0.243 o
6 3 7 22.702 26.027 1.071 23.725 o
6 3 8 1263.710 1194.730 29.534 0.050 o
6 4 0 24.686 23.037 0.807 25.783 o
6 4 1 1155.620 1126.330 7.581 0.084 o
6 4 2 36.946 31.384 0.639 18.140 o
6 4 3 1404.980 1401.110 9.683 0.057 o
6 4 4 7.727 8.781 0.466 83.444 o
6 4 5 2920.890 2935.140 41.645 0.012 o
6 4 6 148.532 158.614 2.153 2.519 o
6 4 7 260.930 256.872 4.526 1.009 o
6 4 8 0.802 1.160 0.264 599.305 o
6 5 0 17992.100 18255.800 181.093 0.000 o
6 5 1 75.164 65.644 0.899 7.507 o
6 5 2 1846.060 1814.910 15.561 0.033 o
6 5 3 10.579 12.051 0.466 62.346 o
6 5 4 0.274 0.638 0.132 1623.630 o
6 5 5 14.115 15.250 0.691 43.674 o
6 5 6 1038.710 1027.980 9.626 0.098 o
6 5 7 35.472 35.296 1.298 15.229 o
6 5 8 420.598 412.040 15.431 0.270 o
6 6 0 13.108 12.313 0.558 51.947 o
6 6 1 660.773 667.940 7.905 0.215 o
6 6 2 29.346 34.103 0.733 20.412 o
6 6 3 2330.950 2273.500 22.635 0.021 o
6 6 4 20.653 17.119 0.643 33.648 o
6 6 5 3267.940 3217.940 37.833 0.010 o
6 6 6 8.238 8.931 0.633 71.725 o
6 6 7 108.565 110.090 2.366 3.745 o
6 6 8 0.227 0.751 0.522 381.570 o
6 7 0 641.013 637.039 10.517 0.209 o
6 7 1 45.279 44.608 0.820 13.266 o
6 7 2 4268.640 4239.350 34.856 0.007 o
6 7 3 26.422 27.377 0.784 23.436 o
6 7 4 0.021 0.326 0.123 3750.370 o
6 7 5 55.822 55.083 1.250 9.690 o
6 7 6 451.281 446.030 5.827 0.424 o
6 7 7 14.513 14.301 0.772 42.108 o
6 8 0 11.947 12.338 0.762 49.310 o
6 8 1 150.841 151.426 1.953 2.580 o
6 8 2 104.372 97.561 1.488 4.528 o
6 8 3 4229.650 4155.040 27.465 0.007 o
6 8 4 25.613 21.144 0.784 25.992 o
6 8 5 1647.190 1649.190 12.898 0.041 o
6 8 6 13.767 13.375 0.737 45.077 o
6 8 7 130.935 119.503 2.681 2.994 o
6 9 0 3039.470 2991.190 48.429 0.011 o
6 9 1 4.768 3.957 0.318 156.399 o
6 9 2 1790.300 1760.950 20.914 0.033 o
6 9 3 4.637 5.269 0.431 133.277 o
6 9 4 1.295 1.585 0.251 456.119 o
6 9 5 25.053 26.297 0.902 23.713 o
6 9 6 591.707 579.961 5.714 0.277 o
6 9 7 0.249 0.254 0.381 694.421 o
6 10 0 10.273 11.887 0.868 50.296 o
6 10 1 436.938 441.400 5.148 0.452 o
6 10 2 0.292 0.366 0.172 1625.910 o
6 10 3 522.828 531.237 5.163 0.338 o
6 10 4 1.314 1.621 0.250 450.684 o
6 10 5 2087.840 2027.380 18.756 0.026 o
6 10 6 30.331 28.119 1.056 19.506 o
6 11 0 3329.950 3338.860 27.764 0.011 o
6 11 1 128.667 133.046 2.198 3.076 o
6 11 2 1045.510 1041.820 10.883 0.095 o
6 11 3 1.828 1.638 0.300 348.943 o
6 11 4 1.872 1.819 0.271 351.085 o
6 11 5 0.846 1.629 0.286 503.276 o
6 11 6 366.124 359.367 10.377 0.435 o
6 12 0 5.349 4.782 1.016 68.881 o
6 12 1 260.609 257.657 4.254 1.028 o
6 12 2 47.731 54.696 1.762 9.608 o
6 12 3 1120.450 1140.410 13.904 0.079 o
6 12 4 19.577 18.806 0.848 31.366 o
6 12 5 411.063 393.816 6.003 0.492 o
6 13 0 812.748 806.754 16.145 0.124 o
6 13 1 42.672 41.598 1.671 11.521 o
6 13 2 1178.500 1163.050 22.873 0.062 o
6 13 3 1.240 1.290 0.272 473.218 o
6 13 4 2.495 2.372 0.458 214.678 o
6 14 0 1.209 1.962 0.531 250.693 o
6 14 1 113.537 113.039 2.494 3.516 o
6 14 2 13.740 12.176 0.787 45.060 o
6 14 3 568.191 576.981 14.066 0.211 o
6 15 0 811.466 801.425 55.537 0.033 o
6 15 1 13.674 13.485 2.045 19.760 o
7 0 1 2758.470 2486.720 23.878 0.016 o
7 0 2 735.927 675.473 5.365 0.199 o
7 0 3 192.544 183.105 4.954 1.437 o
7 0 4 1456.540 1430.580 9.571 0.054 o
7 0 5 155.107 162.989 3.417 2.114 o
7 0 6 131.559 130.253 3.043 2.755 o
7 0 7 383.699 387.770 7.266 0.496 o
7 0 8 0.536 0.278 0.312 763.359 o
7 1 1 1420.720 1286.890 16.677 0.054 o
7 1 2 2761.000 2621.370 22.198 0.016 o
7 1 3 1288.870 1273.050 13.178 0.064 o
7 1 4 1521.760 1491.850 21.353 0.044 o
7 1 5 680.450 672.652 8.657 0.203 o
7 1 6 525.688 528.934 6.863 0.319 o
7 1 7 563.143 549.681 8.863 0.272 o
7 1 8 0.451 0.281 0.164 1450.000 o
7 2 1 978.531 853.188 8.030 0.120 o
7 2 2 2247.570 2163.150 19.061 0.023 o
7 2 3 420.590 410.182 7.446 0.440 o
7 2 4 933.933 945.335 9.344 0.117 o
7 2 5 85.761 93.467 1.550 5.390 o
7 2 6 447.616 455.022 4.924 0.437 o
7 2 7 985.461 1001.790 11.771 0.102 o
7 2 8 7.320 6.019 0.524 92.140 o
7 3 1 995.249 899.036 11.415 0.108 o
7 3 2 2706.630 2658.720 17.036 0.016 o
7 3 3 241.279 244.015 2.375 1.271 o
7 3 4 885.688 889.075 6.954 0.134 o
7 3 5 101.139 94.955 1.528 4.685 o
7 3 6 40.398 40.429 1.202 13.748 o
7 3 7 519.939 522.891 7.758 0.314 o
7 3 8 5.240 3.840 0.521 123.820 o
7 4 1 2897.890 2815.240 25.151 0.014 o
7 4 2 2609.040 2563.020 22.265 0.017 o
7 4 3 211.339 217.674 2.119 1.556 o
7 4 4 824.079 820.003 10.728 0.141 o
7 4 5 499.742 501.182 6.206 0.354 o
7 4 6 674.020 687.246 9.245 0.199 o
7 4 7 733.471 712.289 6.431 0.191 o
7 4 8 4.338 4.222 0.743 103.418 o
7 5 1 915.705 907.044 7.219 0.127 o
7 5 2 325.495 321.823 2.893 0.791 o
7 5 3 296.059 284.322 2.541 0.945 o
7 5 4 1143.350 1150.970 12.146 0.079 o
7 5 5 183.470 181.875 2.361 1.917 o
7 5 6 276.383 278.418 5.487 0.863 o
7 5 7 338.864 340.930 5.449 0.655 o
7 5 8 0.372 0.373 0.478 447.056 o
7 6 1 1449.190 1398.030 15.232 0.052 o
7 6 2 1073.030 1047.210 13.489 0.088 o
7 6 3 21.333 25.170 0.876 26.813 o
7 6 4 824.543 805.905 8.709 0.149 o
7 6 5 107.847 108.196 1.754 4.097 o
7 6 6 231.375 229.952 3.652 1.262 o
7 6 7 473.736 463.688 6.434 0.386 o
7 7 1 905.010 879.196 8.503 0.128 o
7 7 2 3010.940 2924.770 25.711 0.013 o
7 7 3 750.605 735.958 6.351 0.182 o
7 7 4 868.325 865.475 6.327 0.140 o
7 7 5 395.212 392.086 3.739 0.563 o
7 7 6 226.281 215.127 2.948 1.395 o
7 7 7 427.135 405.531 5.215 0.483 o
7 8 1 523.184 529.556 9.428 0.290 o
7 8 2 419.860 425.812 3.770 0.504 o
7 8 3 48.970 53.543 1.828 9.363 o
7 8 4 635.233 639.024 7.798 0.230 o
7 8 5 7.176 7.657 0.551 85.674 o
7 8 6 138.051 129.717 2.253 2.909 o
7 8 7 447.549 430.031 16.307 0.243 o
7 9 1 692.402 686.595 9.195 0.194 o
7 9 2 853.823 827.211 8.045 0.143 o
7 9 3 382.455 375.979 4.379 0.582 o
7 9 4 665.343 675.435 8.481 0.208 o
7 9 5 269.856 274.853 3.803 0.993 o
7 9 6 284.020 282.017 3.324 0.957 o
7 10 1 1306.180 1332.480 13.196 0.062 o
7 10 2 624.229 631.297 6.067 0.247 o
7 10 3 10.096 10.871 0.647 60.109 o
7 10 4 511.021 513.174 8.040 0.319 o
7 10 5 151.928 138.894 2.635 2.501 o
7 10 6 214.852 200.727 6.073 1.135 o
7 11 1 347.750 353.195 3.995 0.674 o
7 11 2 318.525 302.683 5.586 0.727 o
7 11 3 84.118 80.184 1.764 5.645 o
7 11 4 467.052 474.676 8.807 0.349 o
7 11 5 39.337 44.130 1.426 12.770 o
7 12 1 550.594 554.363 5.328 0.310 o
7 12 2 691.523 706.192 12.356 0.174 o
7 12 3 190.699 201.943 3.658 1.588 o
7 12 4 248.323 250.001 3.255 1.164 o
7 12 5 62.885 63.876 6.072 2.529 o
7 13 1 328.187 322.565 7.570 0.603 o
7 13 2 450.065 433.939 6.005 0.428 o
7 13 3 68.049 61.055 1.794 7.254 o
7 13 4 267.145 277.806 26.502 0.157 o
7 14 1 421.376 416.105 7.107 0.444 o
7 14 2 157.326 154.363 3.827 2.036 o
8 0 0 8255.380 8371.900 54.834 0.002 o
8 0 1 472.831 472.726 4.118 0.414 o
8 0 2 2942.610 2760.650 24.197 0.014 o
8 0 3 632.328 574.866 20.282 0.146 o
8 0 4 8.202 6.885 0.545 82.090 o
8 0 5 37.797 38.325 1.931 11.604 o
8 0 6 606.216 594.949 7.842 0.251 o
8 0 7 175.031 158.910 3.682 1.880 o
8 0 8 933.907 862.175 21.451 0.091 o
8 1 0 38.403 35.223 0.872 16.169 o
8 1 1 704.798 663.750 5.426 0.212 o
8 1 2 26.289 24.913 0.478 26.191 o
8 1 3 2751.910 2715.730 30.881 0.015 o
8 1 4 73.086 64.337 1.225 7.439 o
8 1 5 1639.670 1664.390 19.364 0.039 o
8 1 6 15.046 14.332 0.769 41.258 o
8 1 7 230.782 228.187 3.464 1.286 o
8 1 8 4.719 5.079 0.534 120.976 o
8 2 0 7524.370 7041.580 52.502 0.002 o
8 2 1 596.374 580.009 4.881 0.280 o
8 2 2 2122.590 2070.960 19.217 0.025 o
8 2 3 79.152 79.345 1.243 6.406 o
8 2 4 1.588 1.855 0.223 409.426 o
8 2 5 19.873 18.571 0.887 30.682 o
8 2 6 683.134 700.487 9.960 0.191 o
8 2 7 37.456 42.339 1.442 13.280 o
8 2 8 546.349 542.783 11.076 0.257 o
8 3 0 33.785 30.884 0.988 17.974 o
8 3 1 581.906 564.015 5.120 0.290 o
8 3 2 108.022 99.479 1.591 4.312 o
8 3 3 2942.950 2940.020 33.545 0.013 o
8 3 4 924.225 895.470 14.110 0.110 o
8 3 5 2427.980 2412.780 26.411 0.019 o
8 3 6 317.753 315.923 4.051 0.779 o
8 3 7 138.311 139.168 2.464 2.759 o
8 3 8 0.915 1.594 0.589 243.899 o
8 4 0 4146.720 4036.320 62.626 0.006 o
8 4 1 722.869 719.462 8.252 0.185 o
8 4 2 1984.210 1922.230 18.089 0.029 o
8 4 3 64.596 65.197 1.327 8.038 o
8 4 4 2.173 1.996 0.229 332.947 o
8 4 5 0.095 0.487 0.171 1990.920 o
8 4 6 541.245 545.691 7.458 0.299 o
8 4 7 14.297 15.036 0.859 39.992 o
8 5 0 21.361 21.432 0.862 28.396 o
8 5 1 364.702 366.662 2.909 0.653 o
8 5 2 816.598 822.746 7.941 0.151 o
8 5 3 3110.360 3081.380 34.160 0.012 o
8 5 4 40.619 38.281 1.123 14.232 o
8 5 5 1592.600 1544.380 19.489 0.042 o
8 5 6 4.300 4.089 0.437 148.151 o
8 5 7 149.680 142.185 2.700 2.492 o
8 6 0 4113.330 4205.460 22.223 0.007 o
8 6 1 49.657 56.929 1.243 10.423 o
8 6 2 1808.810 1822.790 12.857 0.035 o
8 6 3 193.416 186.459 2.216 1.819 o
8 6 4 3.436 3.930 0.427 169.921 o
8 6 5 15.074 15.601 0.770 40.176 o
8 6 6 467.339 458.889 4.926 0.416 o
8 6 7 1.782 1.427 0.273 381.979 o
8 7 0 9.790 10.483 0.718 59.049 o
8 7 1 471.415 472.143 6.837 0.379 o
8 7 2 135.478 126.036 1.905 3.098 o
8 7 3 1376.850 1328.780 17.328 0.055 o
8 7 4 545.929 562.391 6.048 0.305 o
8 7 5 1109.630 1106.100 15.453 0.079 o
8 7 6 9.031 9.470 0.727 62.929 o
8 7 7 144.481 128.161 6.146 1.635 o
8 8 0 4722.450 4742.700 19.406 0.006 o
8 8 1 467.637 451.648 4.752 0.421 o
8 8 2 1027.420 1006.630 16.068 0.089 o
8 8 3 68.016 65.709 1.751 7.140 o
8 8 4 0.396 0.709 0.168 1205.730 o
8 8 5 39.620 37.967 1.219 14.159 o
8 8 6 449.890 445.727 7.338 0.399 o
8 9 0 28.966 26.436 1.502 17.316 o
8 9 1 337.625 341.992 3.772 0.713 o
8 9 2 9.961 13.998 0.729 53.099 o
8 9 3 1203.030 1180.670 13.316 0.073 o
8 9 4 7.440 7.859 0.615 79.508 o
8 9 5 912.867 891.021 10.374 0.122 o
8 9 6 0.597 0.927 0.292 654.601 o
8 10 0 1717.330 1727.000 39.554 0.027 o
8 10 1 370.469 379.216 5.622 0.566 o
8 10 2 914.186 926.272 11.045 0.117 o
8 10 3 78.339 76.329 1.930 5.903 o
8 10 4 1.778 1.552 0.257 384.225 o
8 10 5 0.528 1.180 0.247 721.906 o
8 11 0 1.807 3.178 0.826 123.178 o
8 11 1 149.602 156.444 3.290 2.245 o
8 11 2 140.521 141.241 2.638 2.655 o
8 11 3 1365.250 1336.260 22.869 0.050 o
8 11 4 18.852 24.915 0.997 27.480 o
8 11 5 725.226 719.221 8.725 0.183 o
8 12 0 1124.160 1140.850 21.590 0.068 o
8 12 1 0.246 0.454 0.216 1338.640 o
8 12 2 566.303 568.787 8.010 0.274 o
8 12 3 3.758 3.302 0.438 167.608 o
8 12 4 0.498 0.740 0.299 712.905 o
8 13 0 6.423 6.481 1.045 60.008 o
8 13 1 142.595 134.387 2.708 2.655 o
8 13 2 3.153 4.192 0.540 151.271 o
8 13 3 618.496 601.638 10.479 0.223 o
8 14 0 1128.490 1141.450 27.603 0.058 o
8 14 1 11.329 11.879 2.837 12.839 o
8 14 2 344.737 336.348 8.037 0.551 o
9 0 1 1926.720 1840.220 23.022 0.029 o
9 0 2 1202.250 1140.640 16.945 0.070 o
9 0 3 1499.980 1446.430 33.473 0.037 o
9 0 4 928.885 915.802 15.492 0.105 o
9 0 5 37.284 33.896 1.722 12.992 o
9 0 6 485.740 502.110 10.947 0.296 o
9 0 7 751.457 715.511 8.876 0.175 o
9 1 1 3151.880 3114.460 21.288 0.012 o
9 1 2 876.172 851.061 7.586 0.138 o
9 1 3 3.595 4.052 0.324 182.953 o
9 1 4 899.564 882.945 10.725 0.123 o
9 1 5 33.327 35.983 1.302 15.712 o
9 1 6 233.728 244.081 3.428 1.234 o
9 1 7 658.437 674.112 8.997 0.208 o
9 2 1 2470.260 2421.590 19.182 0.019 o
9 2 2 327.926 321.809 3.081 0.780 o
9 2 3 384.071 395.664 3.600 0.580 o
9 2 4 2075.180 2057.880 25.265 0.025 o
9 2 5 141.131 138.815 2.731 2.637 o
9 2 6 373.955 376.150 5.247 0.573 o
9 2 7 230.774 216.748 3.761 1.288 o
9 3 1 2047.260 1982.190 17.066 0.028 o
9 3 2 459.111 459.178 4.344 0.431 o
9 3 3 110.044 111.141 1.694 4.007 o
9 3 4 2140.800 2094.080 14.059 0.026 o
9 3 5 276.892 278.532 4.700 0.910 o
9 3 6 543.700 538.868 8.600 0.287 o
9 3 7 269.201 265.160 3.883 1.008 o
9 4 1 580.798 580.334 8.123 0.263 o
9 4 2 368.675 367.335 4.833 0.600 o
9 4 3 762.712 746.005 8.916 0.169 o
9 4 4 2629.680 2613.020 27.238 0.016 o
9 4 5 40.048 37.847 1.271 13.873 o
9 4 6 229.465 222.384 3.227 1.330 o
9 4 7 178.205 173.965 3.617 1.799 o
9 5 1 1394.030 1375.330 11.156 0.057 o
9 5 2 1480.400 1464.180 10.972 0.052 o
9 5 3 146.535 153.440 2.163 2.587 o
9 5 4 1415.440 1417.080 12.414 0.055 o
9 5 5 91.586 92.758 2.121 4.731 o
9 5 6 181.184 167.116 3.074 1.900 o
9 5 7 417.817 400.267 10.723 0.371 o
9 6 1 1203.730 1175.290 11.251 0.075 o
9 6 2 520.225 502.813 5.594 0.345 o
9 6 3 570.276 549.714 6.904 0.287 o
9 6 4 1161.250 1133.880 16.869 0.073 o
9 6 5 68.852 69.236 1.982 6.635 o
9 6 6 279.285 271.241 3.644 0.976 o
9 6 7 322.640 318.130 7.608 0.613 o
9 7 1 2059.500 2045.070 15.458 0.027 o
9 7 2 106.479 105.562 2.958 3.529 o
9 7 3 0.730 1.415 0.240 617.787 o
9 7 4 541.794 559.410 7.395 0.295 o
9 7 5 43.155 44.637 1.440 11.950 o
9 7 6 277.940 265.508 6.434 0.813 o
9 8 1 1626.230 1583.980 13.738 0.043 o
9 8 2 324.790 322.797 3.502 0.773 o
9 8 3 223.701 216.664 2.677 1.430 o
9 8 4 652.008 662.426 5.381 0.232 o
9 8 5 86.137 80.629 1.942 5.375 o
9 8 6 287.457 280.729 7.601 0.704 o
9 9 1 1221.220 1224.280 14.115 0.069 o
9 9 2 412.688 419.501 6.103 0.473 o
9 9 3 8.725 11.324 0.661 63.548 o
9 9 4 525.995 531.219 6.554 0.322 o
9 9 5 20.926 21.113 1.233 24.582 o
9 9 6 100.615 93.562 5.428 2.362 o
9 10 1 305.318 314.165 5.226 0.760 o
9 10 2 348.216 345.077 6.539 0.596 o
9 10 3 382.746 358.189 5.666 0.562 o
9 10 4 824.988 831.662 12.215 0.135 o
9 10 5 26.244 25.654 1.324 19.820 o
9 11 1 515.051 529.919 6.793 0.327 o
9 11 2 328.457 320.811 5.855 0.677 o
9 11 3 91.974 99.628 2.486 4.324 o
9 11 4 684.657 668.399 8.450 0.203 o
9 12 1 321.198 312.559 5.023 0.736 o
9 12 2 95.696 95.530 2.212 4.461 o
9 12 3 76.782 67.891 1.781 6.413 o
9 13 1 472.588 453.483 7.772 0.370 o
9 13 2 110.981 111.376 4.460 2.600 o
10 0 0 31.079 29.036 1.435 16.670 o
10 0 1 925.919 891.117 15.691 0.106 o
10 0 2 6.127 5.708 0.471 107.992 o
10 0 3 2770.770 2758.950 54.951 0.012 o
10 0 4 137.001 138.125 3.751 2.375 o
10 0 5 58.444 67.571 3.663 4.801 o
10 0 6 61.301 68.660 2.970 5.640 o
10 0 7 230.336 218.509 6.984 0.954 o
10 1 0 4042.280 4088.190 112.011 0.004 o
10 1 1 10.321 9.408 0.438 69.462 o
10 1 2 951.208 930.386 6.170 0.121 o
10 1 3 12.833 13.367 0.776 45.963 o
10 1 4 0.014 0.392 0.194 2149.960 o
10 1 5 1.806 2.178 0.432 261.420 o
10 1 6 602.060 620.599 12.079 0.212 o
10 1 7 6.801 11.053 1.036 53.002 o
10 2 0 11.097 10.753 0.608 58.436 o
10 2 1 761.355 753.032 7.525 0.173 o
10 2 2 49.099 46.902 1.043 11.764 o
10 2 3 1530.850 1525.970 12.929 0.047 o
10 2 4 31.534 32.856 1.361 16.382 o
10 2 5 1232.230 1231.930 17.252 0.065 o
10 2 6 0.738 0.576 0.319 614.797 o
10 2 7 79.339 78.745 2.391 5.304 o
10 3 0 3061.710 2976.860 18.801 0.013 o
10 3 1 76.394 74.190 1.369 6.661 o
10 3 2 347.169 358.905 4.403 0.657 o
10 3 3 82.640 80.373 1.664 5.807 o
10 3 4 0.006 0.552 0.222 1627.600 o
10 3 5 2.239 2.808 0.545 188.264 o
10 3 6 674.690 653.420 16.553 0.157 o
10 3 7 6.916 7.244 0.891 66.235 o
10 4 0 6.211 6.180 0.606 93.702 o
10 4 1 349.258 338.402 3.228 0.706 o
10 4 2 4.547 4.129 0.428 144.520 o
10 4 3 3883.320 3666.720 54.967 0.007 o
10 4 4 17.890 18.335 0.821 33.782 o
10 4 5 895.036 879.349 12.774 0.119 o
10 4 6 0.917 1.509 0.372 409.462 o
10 4 7 56.328 56.057 3.270 5.683 o
10 5 0 439.893 439.727 4.821 0.455 o
10 5 1 160.196 153.923 2.618 2.291 o
10 5 2 1182.180 1146.270 11.354 0.077 o
10 5 3 10.384 10.684 0.723 56.750 o
10 5 4 0.155 0.929 0.309 802.700 o
10 5 5 10.456 11.018 0.697 56.958 o
10 5 6 407.376 398.411 5.099 0.514 o
10 6 0 23.358 22.899 1.139 23.600 o
10 6 1 459.705 454.984 6.781 0.396 o
10 6 2 0.017 0.475 0.183 2144.200 o
10 6 3 1762.110 1673.730 30.450 0.031 o
10 6 4 22.368 25.522 1.270 22.140 o
10 6 5 416.248 405.728 4.684 0.506 o
10 6 6 16.604 17.396 0.918 34.254 o
10 7 0 5322.470 5244.970 85.472 0.004 o
10 7 1 65.148 68.945 1.919 6.992 o
10 7 2 274.218 260.292 4.380 0.968 o
10 7 3 18.936 18.209 0.875 31.944 o
10 7 4 0.024 0.237 0.156 3261.030 o
10 7 5 0.012 0.361 0.171 2605.340 o
10 7 6 500.639 487.308 10.628 0.297 o
10 8 0 8.146 8.220 0.827 63.503 o
10 8 1 565.360 553.117 6.187 0.295 o
10 8 2 52.433 52.217 1.427 9.966 o
10 8 3 552.741 568.762 6.335 0.296 o
10 8 4 22.927 19.055 1.062 25.907 o
10 8 5 402.924 388.829 8.648 0.438 o
10 8 6 0.011 -0.106 0.636 314.925 o
10 9 0 1704.910 1661.410 33.477 0.031 o
10 9 1 0.020 0.386 0.187 2251.280 o
10 9 2 487.179 505.837 8.429 0.331 o
10 9 3 17.196 14.753 0.849 36.333 o
10 9 4 0.187 0.459 0.216 1427.310 o
10 9 5 1.486 2.063 0.352 330.828 o
10 10 0 8.297 9.114 1.124 48.025 o
10 10 1 183.484 186.385 3.507 1.724 o
10 10 2 8.031 6.743 0.593 80.638 o
10 10 3 1683.490 1657.530 29.402 0.033 o
10 10 4 41.797 48.791 1.486 11.680 o
10 10 5 215.512 220.929 8.366 0.853 o
10 11 0 564.719 565.540 9.227 0.263 o
10 11 1 20.246 17.841 1.602 21.500 o
10 11 2 341.578 336.970 4.245 0.695 o
10 11 3 5.923 5.350 0.511 108.315 o
10 11 4 0.319 0.552 0.530 373.900 o
10 12 0 6.169 6.294 0.947 67.423 o
10 12 1 113.268 112.905 2.670 3.438 o
10 12 2 2.602 2.716 0.385 226.864 o
10 12 3 732.595 786.401 19.383 0.123 o
11 0 1 2023.500 2126.080 29.163 0.024 o
11 0 2 199.734 210.059 5.470 1.256 o
11 0 3 825.047 852.769 18.508 0.111 o
11 0 4 586.365 593.176 33.542 0.082 o
11 0 5 92.833 98.219 4.921 2.684 o
11 0 6 458.114 461.372 14.186 0.267 o
11 1 1 1400.910 1466.850 19.455 0.050 o
11 1 2 410.220 403.726 4.833 0.512 o
11 1 3 4.762 4.906 0.897 81.346 o
11 1 4 1084.780 1119.710 12.991 0.084 o
11 1 5 15.658 14.651 1.213 31.391 o
11 1 6 196.225 194.793 4.317 1.478 o
11 2 1 2035.630 2002.500 27.241 0.025 o
11 2 2 337.407 327.398 7.988 0.569 o
11 2 3 218.360 211.652 4.233 1.316 o
11 2 4 974.987 1003.800 14.831 0.097 o
11 2 5 93.839 93.141 2.789 4.144 o
11 2 6 84.390 85.859 2.870 4.497 o
11 3 1 674.965 678.021 7.329 0.211 o
11 3 2 470.775 463.305 5.845 0.398 o
11 3 3 239.582 246.078 4.433 1.118 o
11 3 4 1808.770 1784.910 29.693 0.029 o
11 3 5 140.578 136.635 2.977 2.587 o
11 3 6 495.638 489.559 15.487 0.230 o
11 4 1 796.180 777.260 6.792 0.164 o
11 4 2 24.639 25.333 1.068 22.842 o
11 4 3 296.786 296.956 5.519 0.786 o
11 4 4 1189.670 1198.730 13.603 0.073 o
11 4 5 18.606 21.700 1.191 26.435 o
11 4 6 89.407 92.112 2.801 4.289 o
11 5 1 1092.700 1070.500 13.428 0.085 o
11 5 2 854.288 847.964 8.864 0.139 o
11 5 3 16.351 16.612 1.003 33.514 o
11 5 4 1366.970 1376.900 20.202 0.052 o
11 5 5 131.819 126.641 2.891 2.836 o
11 5 6 217.280 211.169 4.037 1.346 o
11 6 1 1249.000 1255.180 11.139 0.069 o
11 6 2 140.826 138.468 2.592 2.685 o
11 6 3 322.612 315.449 4.832 0.737 o
11 6 4 678.944 680.324 13.545 0.173 o
11 6 5 74.134 73.865 2.054 6.073 o
11 6 6 164.988 171.152 4.597 1.720 o
11 7 1 603.342 586.381 8.525 0.248 o
11 7 2 80.791 82.586 1.865 5.665 o
11 7 3 10.002 9.076 0.672 62.562 o
11 7 4 684.391 685.913 9.369 0.196 o
11 7 5 1.567 1.981 0.419 288.821 o
11 8 1 1427.670 1381.230 14.194 0.054 o
11 8 2 385.628 386.624 5.238 0.548 o
11 8 3 185.237 189.614 3.989 1.619 o
11 8 4 340.757 334.930 6.376 0.622 o
11 8 5 79.265 77.754 2.472 5.244 o
11 9 1 628.175 621.224 8.056 0.234 o
11 9 2 268.656 257.084 4.898 0.956 o
11 9 3 1.168 0.717 0.212 627.766 o
11 9 4 579.830 571.377 8.915 0.258 o
11 9 5 16.676 18.452 2.249 15.939 o
11 10 1 427.454 425.740 8.954 0.394 o
11 10 2 31.487 31.908 1.321 16.776 o
11 10 3 194.655 207.983 3.462 1.566 o
11 10 4 432.714 446.071 11.379 0.333 o
11 11 1 344.283 329.438 9.812 0.489 o
11 11 2 258.370 244.718 5.630 0.953 o
11 11 3 46.895 44.904 2.065 9.460 o
11 12 1 345.487 361.479 10.106 0.462 o
12 0 0 5227.130 5119.440 117.756 0.003 o
12 0 1 1.372 1.557 0.431 312.047 o
12 0 2 424.539 437.375 14.504 0.280 o
12 0 3 40.453 39.996 3.128 7.259 o
12 0 4 4.194 4.044 1.034 73.988 o
12 0 5 0.318 1.163 0.915 137.525 o
12 0 6 405.570 438.270 10.068 0.381 o
12 1 0 31.173 31.015 1.844 13.948 o
12 1 1 341.072 340.932 9.104 0.512 o
12 1 2 32.235 35.663 2.418 10.563 o
12 1 3 1382.700 1457.010 15.288 0.053 o
12 1 4 58.663 59.311 2.673 6.506 o
12 1 5 1017.820 1050.230 19.431 0.081 o
12 1 6 31.207 37.458 1.875 13.105 o
12 2 0 1603.800 1587.310 36.461 0.031 o
12 2 1 6.277 6.167 0.606 93.200 o
12 2 2 1232.570 1241.440 26.900 0.053 o
12 2 3 0.023 0.365 0.373 795.753 o
12 2 4 1.662 1.527 0.465 272.629 o
12 2 5 9.925 10.225 1.507 32.606 o
12 2 6 233.845 239.414 5.478 1.057 o
12 3 0 35.537 34.985 1.631 13.663 o
12 3 1 188.125 187.709 4.652 1.498 o
12 3 2 48.263 45.857 1.939 9.603 o
12 3 3 2262.610 2418.670 16.982 0.022 o
12 3 4 156.467 148.130 3.445 2.174 o
12 3 5 511.455 507.452 7.860 0.323 o
12 3 6 48.335 44.785 4.587 4.190 o
12 4 0 2827.710 2799.520 47.592 0.012 o
12 4 1 299.000 304.110 3.857 0.852 o
12 4 2 671.550 644.398 7.313 0.218 o
12 4 3 5.581 5.086 0.708 93.458 o
12 4 4 1.098 1.205 0.357 420.835 o
12 4 5 31.093 31.455 1.582 15.421 o
12 4 6 331.537 344.942 13.841 0.361 o
12 5 0 21.599 21.412 1.311 23.215 o
12 5 1 278.318 272.762 5.208 0.883 o
12 5 2 81.843 79.186 2.508 5.065 o
12 5 3 772.093 780.185 7.059 0.169 o
12 5 4 5.073 5.120 0.675 100.730 o
12 5 5 1175.950 1227.570 15.862 0.070 o
12 6 0 2490.720 2462.910 32.452 0.017 o
12 6 1 5.752 4.983 0.544 108.722 o
12 6 2 474.458 473.031 5.817 0.391 o
12 6 3 2.946 3.043 0.442 192.194 o
12 6 4 3.730 3.390 0.611 135.090 o
12 6 5 1.631 2.235 0.396 288.246 o
12 7 0 30.226 28.439 1.916 14.024 o
12 7 1 173.917 168.326 3.101 1.959 o
12 7 2 100.138 99.128 2.344 4.165 o
12 7 3 1513.120 1505.850 29.931 0.038 o
12 7 4 128.068 119.289 3.218 2.837 o
12 7 5 363.793 403.114 10.340 0.420 o
12 8 0 1027.220 1013.180 72.547 0.020 o
12 8 1 55.173 50.159 1.821 8.877 o
12 8 2 706.424 696.047 12.613 0.170 o
12 8 3 6.590 7.264 0.704 80.120 o
12 8 4 0.105 0.196 0.213 1928.370 o
12 9 0 11.611 12.300 1.306 34.785 o
12 9 1 143.327 136.100 3.508 2.386 o
12 9 2 5.183 5.931 0.731 91.048 o
12 9 3 692.815 727.816 14.831 0.157 o
12 9 4 5.929 3.606 1.432 44.495 o
12 10 0 1850.160 1792.030 21.108 0.032 o
12 10 1 87.894 83.083 2.374 4.863 o
12 10 2 206.048 201.294 3.916 1.454 o
12 10 3 0.026 0.153 0.384 809.278 o
12 11 0 11.050 12.674 1.350 34.101 o
12 11 1 111.197 103.799 5.346 2.244 o
12 11 2 22.823 18.853 3.261 8.870 o
13 0 1 340.829 348.018 12.727 0.387 o
13 0 2 126.772 134.616 5.725 1.848 o
13 0 3 10.511 9.148 2.148 20.401 o
13 0 4 930.427 981.132 22.141 0.084 o
13 0 5 17.068 16.714 2.012 18.388 o
13 1 1 576.555 588.587 10.017 0.246 o
13 1 2 485.793 516.182 7.979 0.335 o
13 1 3 352.789 366.521 10.089 0.453 o
13 1 4 517.780 530.424 10.205 0.283 o
13 1 5 240.840 257.879 5.631 0.988 o
13 2 1 460.452 463.761 11.123 0.317 o
13 2 2 885.893 870.131 15.242 0.113 o
13 2 3 13.464 15.939 2.744 12.861 o
13 2 4 495.571 513.368 9.553 0.308 o
13 2 5 26.621 26.440 1.618 17.233 o
13 3 1 427.115 413.470 8.865 0.401 o
13 3 2 228.205 230.929 5.811 1.060 o
13 3 3 191.162 189.251 5.431 1.352 o
13 3 4 211.849 217.958 5.883 1.136 o
13 3 5 29.198 27.972 1.661 15.929 o
13 4 1 784.477 804.783 18.738 0.118 o
13 4 2 628.172 605.857 12.912 0.200 o
13 4 3 23.948 26.014 1.779 16.882 o
13 4 4 340.570 338.853 6.423 0.617 o
13 4 5 86.948 85.634 3.203 4.127 o
13 5 1 704.080 692.242 7.042 0.200 o
13 5 2 116.376 120.968 2.766 3.235 o
13 5 3 50.896 51.071 2.417 7.857 o
13 5 4 276.920 276.535 7.164 0.756 o
13 5 5 103.146 105.453 6.921 1.715 o
13 6 1 338.650 338.141 6.319 0.625 o
13 6 2 331.796 315.335 4.897 0.715 o
13 6 3 3.620 3.552 0.627 132.822 o
13 6 4 506.089 468.085 7.312 0.347 o
13 6 5 22.744 25.482 3.765 6.955 o
13 7 1 250.581 243.626 7.494 0.825 o
13 7 2 463.051 474.423 6.665 0.387 o
13 7 3 371.007 376.439 7.840 0.501 o
13 7 4 343.641 326.414 6.413 0.623 o
13 8 1 179.625 174.622 5.285 1.478 o
13 8 2 306.566 297.872 4.770 0.799 o
13 8 3 0.444 0.660 0.257 873.706 o
13 8 4 443.495 432.576 16.917 0.235 o
13 9 1 339.426 335.387 5.428 0.660 o
13 9 2 194.520 189.233 4.336 1.503 o
13 9 3 161.232 159.965 4.588 1.794 o
13 10 1 316.867 298.766 6.468 0.693 o
14 0 1 57.179 58.445 3.937 4.622 o
14 0 2 219.647 240.735 10.924 0.624 o
14 0 3 1246.270 1394.450 30.281 0.046 o
14 0 4 84.061 88.929 4.856 2.904 o
14 1 0 941.132 889.505 88.430 0.015 o
14 1 1 5.386 5.519 0.859 79.557 o
14 1 2 827.211 907.700 26.781 0.082 o
14 1 3 7.511 9.445 1.085 51.053 o
14 1 4 0.091 0.580 0.376 706.977 o
14 2 0 21.646 21.956 2.359 13.609 o
14 2 1 132.505 140.072 4.363 2.212 o
14 2 2 3.360 3.937 1.094 72.714 o
14 2 3 792.760 829.242 13.152 0.137 o
14 2 4 47.220 45.384 2.189 9.047 o
14 2 5 744.488 745.699 18.800 0.126 o
14 3 0 2163.200 2149.260 100.335 0.009 o
14 3 1 335.833 334.130 6.524 0.625 o
14 3 2 776.297 797.589 22.152 0.105 o
14 3 3 1.119 2.294 0.622 205.255 o
14 3 4 0.084 0.141 0.235 1797.840 o
14 3 5 9.370 9.095 2.121 21.243 o
14 4 0 32.357 33.292 2.399 10.785 o
14 4 1 182.154 180.498 4.263 1.627 o
14 4 2 21.824 23.093 1.507 20.628 o
14 4 3 354.623 407.453 10.230 0.429 o
14 4 4 11.328 10.944 1.165 39.795 o
14 5 0 1793.790 1804.380 68.795 0.016 o
14 5 1 0.959 1.977 0.649 204.967 o
14 5 2 642.263 656.457 14.465 0.178 o
14 5 3 19.829 19.488 1.791 19.254 o
14 5 4 0.537 0.877 0.486 378.674 o
14 6 0 12.657 14.056 2.559 14.620 o
14 6 1 81.840 78.112 3.264 4.335 o
14 6 2 45.682 50.734 2.982 6.941 o
14 6 3 724.251 751.140 24.201 0.104 o
14 7 0 434.252 402.363 19.012 0.212 o
14 7 1 123.025 112.820 3.165 3.005 o
14 7 2 569.166 565.691 11.026 0.243 o
14 7 3 0.241 0.374 0.392 645.282 o
14 8 0 11.758 12.224 2.519 15.356 o
14 8 1 49.952 47.781 2.073 8.947 o
14 8 2 15.015 18.244 1.406 27.086 o
14 9 0 616.906 641.772 13.811 0.191 o
14 9 1 3.119 3.110 0.856 104.352 o
15 0 2 491.190 558.945 12.083 0.264 o
15 0 3 48.562 46.774 5.064 3.620 o
15 0 4 391.714 419.451 14.000 0.308 o
15 1 1 256.789 287.811 8.849 0.675 o
15 1 2 412.966 449.569 7.485 0.428 o
15 1 3 141.287 151.892 5.221 1.821 o
15 1 4 495.949 516.498 15.777 0.223 o
15 2 1 514.440 576.867 12.511 0.246 o
15 2 2 215.777 233.667 5.399 1.145 o
15 2 3 48.296 49.646 2.953 6.878 o
15 3 1 622.406 624.535 12.137 0.205 o
15 3 2 262.237 258.142 6.404 0.864 o
15 3 3 8.652 8.780 1.069 49.883 o
15 4 1 734.228 765.096 23.135 0.107 o
15 4 2 431.469 425.807 8.660 0.397 o
15 4 3 26.980 27.957 1.668 16.522 o
15 5 1 284.479 297.134 11.985 0.474 o
15 5 2 293.703 282.216 8.229 0.656 o
15 5 3 85.430 80.859 11.349 0.860 o
15 6 1 332.299 323.973 11.107 0.455 o
15 6 2 274.282 288.954 10.809 0.541 o
15 7 1 259.123 256.252 5.365 0.954 o
16 0 2 657.385 759.885 20.231 0.130 o
16 0 3 32.580 38.527 4.269 5.168 o
16 1 2 0.032 0.455 0.432 600.317 o
16 1 3 632.222 731.483 13.242 0.180 o
16 2 1 0.038 0.557 0.742 219.062 o
16 2 2 307.395 325.285 6.442 0.687 o
16 2 3 20.456 19.091 3.023 10.129 o
16 3 1 180.136 209.792 11.030 0.686 o
16 3 2 93.091 100.259 4.180 3.105 o
16 4 1 9.568 11.013 1.733 27.457 o
16 4 2 437.007 450.745 10.350 0.349 o
16 5 1 123.495 115.639 11.282 0.798 o
16 6 0 249.502 236.122 10.845 0.597 o
;
_iucr_refine_instructions_details
;
TITL MoC6O6_20040 in Pnma
REM Pnma (#62, found as Pcmn in -cba setting)
CELL 0.623035 11.821247 11.297402 6.394022 90 90 90
ZERR 4 0.000122 0.00008 0.000047 0 0 0
LATT 1
SYMM 0.5-X,-Y,0.5+Z
SYMM -X,0.5+Y,-Z
SYMM 0.5+X,0.5-Y,0.5-Z
SFAC C O Mo
DISP C 0.002 0.0012 8.8849
DISP Mo -4.589 0.5436 2079.1323
DISP O 0.0078 0.0046 23.2272
UNIT 24 24 4

L.S. 10
PLAN  20
TEMP -163.15
CONF
LIST 6
FMAP 2
MORE -1
ACTA 
EXTI 0.007167
SHEL 999 0
WGHT 0.031307 0.154896
FVAR 0.614114
REM <olex2.extras>
REM <HklSrc "%.\\MoCO6_19900.hkl">
REM </olex2.extras>

Mo01  3     0.37369  0.75000  0.43747  10.50000  0.01740  0.01451  0.01625 =
 0.00000  0.00007 -0.00000 
O002  2     0.53535  0.94978  0.24401  11.00000  0.03200  0.02650  0.03246 =
 0.00223  0.00390 -0.00750 
O003  2     0.52099  0.75000  0.85897  10.50000  0.03028  0.03773  0.02346 =
 0.00000 -0.00516 -0.00000 
O004  2     0.22409  0.75000  0.01956  10.50000  0.03069  0.04257  0.02390 =
 0.00000 -0.00554 -0.00000 
O005  2     0.21597  0.54709  0.63279  11.00000  0.03030  0.02791  0.03822 =
 0.00950  0.00133 -0.00570 
C006  1     0.47749  0.87909  0.31207  11.00000  0.02282  0.01991  0.02156 =
 -0.00131 -0.00066  0.00021 
C007  1     0.46921  0.75000  0.70873  10.50000  0.02188  0.02132  0.02116 =
 0.00000  0.00110 -0.00000 
C008  1     0.27728  0.75000  0.16792  10.50000  0.02140  0.02188  0.02108 =
 0.00000  0.00200 -0.00000 
C009  1     0.27120  0.61950  0.56344  11.00000  0.02219  0.02057  0.02246 =
 0.00151 -0.00082  0.00080 
HKLF 4

END
Q1 1 0.45 0.75 0.458333 11 0.05 0.56
Q2 1 0.3 0.75 0.416667 11 0.05 0.51
Q3 1 0.3 0.675 0.5 11 0.05 0.26
Q4 1 0.35 0.75 0.25 11 0.05 0.21
Q5 1 0.375 0.65 0.416667 11 0.05 0.19

  REM The information below was added by Olex2.
  REM
  REM R1 = 0.0163 for 1379 Fo > 4sig(Fo) and 0.0166 for all 1407 data
  REM 68 parameters refined using 0 restraints
  REM Highest difference peak 0.5581, deepest hole -0.5765
  REM Mean Shift 0.0000, Max Shift -0.0002.

  REM +++ Tabular Listing of Refinement Information +++
  REM R1_all = 0.0166
  REM R1_gt = 0.0163
  REM wR_ref = 0.0465
  REM GOOF = 1.0417
  REM Shift_max = -0.0002
  REM Shift_mean = 0.0000
  REM Reflections_all = 1407
  REM Reflections_gt = 1379
  REM Parameters = 68
  REM Hole = -0.5765
  REM Peak = 0.5581
  REM Flack = n/a

  
;
_olex2_submission_special_instructions  'No special instructions were received'
